<NUMBER OF ZONES> 36
<NUMBER OF NODES> 1299
<FIRST THRU NODE> 1
<NUMBER OF LINKS> 3312
<END OF METADATA> 

~	 Init node 	 Term node 	 Capacity 	 Length 	 Free Flow Time 	 B 	 Power 	 Speed limit 	 Toll 	 Link Type 	
	1	1	1000	3.75	0.08333333333333333	0.15	4	45	0	8	;
	1	1123	10000	0.0	0.0	0.15	4	500	0	9	;
	1	317	10000	0.0	0.0	0.15	4	500	0	9	;
	2	2	1000	3.75	0.08333333333333333	0.15	4	45	0	8	;
	2	1291	10000	0.0	0.0	0.15	4	500	0	9	;
	3	490	10000	0.0	0.0	0.15	4	500	0	9	;
	3	3	1000	3.75	0.08333333333333333	0.15	4	45	0	8	;
	4	4	1000	3.75	0.08333333333333333	0.15	4	45	0	8	;
	4	951	10000	0.0	0.0	0.15	4	500	0	9	;
	5	5	1000	3.75	0.08333333333333333	0.15	4	45	0	8	;
	5	254	10000	0.0	0.0	0.15	4	500	0	9	;
	6	72	10000	0.0	0.0	0.15	4	500	0	9	;
	6	6	1000	3.75	0.08333333333333333	0.15	4	45	0	8	;
	7	633	10000	0.0	0.0	0.15	4	500	0	9	;
	7	7	1000	3.75	0.08333333333333333	0.15	4	45	0	8	;
	8	8	1000	3.75	0.08333333333333333	0.15	4	45	0	8	;
	8	1196	10000	0.0	0.0	0.15	4	500	0	9	;
	9	498	10000	0.0	0.0	0.15	4	500	0	9	;
	9	9	1000	3.75	0.08333333333333333	0.15	4	45	0	8	;
	10	10	1000	3.75	0.08333333333333333	0.15	4	45	0	8	;
	10	862	10000	0.0	0.0	0.15	4	500	0	9	;
	11	11	1000	3.75	0.08333333333333333	0.15	4	45	0	8	;
	11	670	10000	0.0	0.0	0.15	4	500	0	9	;
	12	12	1000	3.75	0.08333333333333333	0.15	4	45	0	8	;
	12	989	10000	0.0	0.0	0.15	4	500	0	9	;
	13	332	10000	0.0	0.0	0.15	4	500	0	9	;
	13	13	1000	3.75	0.08333333333333333	0.15	4	45	0	8	;
	14	1066	10000	0.0	0.0	0.15	4	500	0	9	;
	14	14	1000	3.75	0.08333333333333333	0.15	4	45	0	8	;
	15	913	10000	0.0	0.0	0.15	4	500	0	9	;
	15	15	1000	3.75	0.08333333333333333	0.15	4	45	0	8	;
	16	16	1000	3.75	0.08333333333333333	0.15	4	45	0	8	;
	16	1228	10000	0.0	0.0	0.15	4	500	0	9	;
	17	17	1000	3.75	0.08333333333333333	0.15	4	45	0	8	;
	17	901	10000	0.0	0.0	0.15	4	500	0	9	;
	18	18	1000	3.75	0.08333333333333333	0.15	4	45	0	8	;
	18	38	10000	0.0	0.0	0.15	4	500	0	9	;
	19	1064	10000	0.0	0.0	0.15	4	500	0	9	;
	19	19	1000	3.75	0.08333333333333333	0.15	4	45	0	8	;
	20	610	10000	0.0	0.0	0.15	4	500	0	9	;
	20	20	1000	3.75	0.08333333333333333	0.15	4	45	0	8	;
	21	21	1000	3.75	0.08333333333333333	0.15	4	45	0	8	;
	21	390	10000	0.0	0.0	0.15	4	500	0	9	;
	22	22	1000	3.75	0.08333333333333333	0.15	4	45	0	8	;
	22	599	10000	0.0	0.0	0.15	4	500	0	9	;
	23	819	10000	0.0	0.0	0.15	4	500	0	9	;
	23	23	1000	3.75	0.08333333333333333	0.15	4	45	0	8	;
	24	24	1000	3.75	0.08333333333333333	0.15	4	45	0	8	;
	24	843	10000	0.0	0.0	0.15	4	500	0	9	;
	25	25	1000	3.75	0.08333333333333333	0.15	4	45	0	8	;
	25	1087	10000	0.0	0.0	0.15	4	500	0	9	;
	26	26	1000	3.75	0.08333333333333333	0.15	4	45	0	8	;
	26	935	10000	0.0	0.0	0.15	4	500	0	9	;
	27	954	10000	0.0	0.0	0.15	4	500	0	9	;
	27	27	1000	3.75	0.08333333333333333	0.15	4	45	0	8	;
	28	28	1000	3.75	0.08333333333333333	0.15	4	45	0	8	;
	28	318	10000	0.0	0.0	0.15	4	500	0	9	;
	29	1002	10000	0.0	0.0	0.15	4	500	0	9	;
	29	29	1000	3.75	0.08333333333333333	0.15	4	45	0	8	;
	30	421	10000	0.0	0.0	0.15	4	500	0	9	;
	30	30	1000	3.75	0.08333333333333333	0.15	4	45	0	8	;
	31	1094	10000	0.0	0.0	0.15	4	500	0	9	;
	31	31	1000	3.75	0.08333333333333333	0.15	4	45	0	8	;
	32	32	1000	3.75	0.08333333333333333	0.15	4	45	0	8	;
	32	893	10000	0.0	0.0	0.15	4	500	0	9	;
	33	33	1000	3.75	0.08333333333333333	0.15	4	45	0	8	;
	33	171	10000	0.0	0.0	0.15	4	500	0	9	;
	34	1185	10000	0.0	0.0	0.15	4	500	0	9	;
	34	34	1000	3.75	0.08333333333333333	0.15	4	45	0	8	;
	35	35	1000	3.75	0.08333333333333333	0.15	4	45	0	8	;
	35	205	10000	0.0	0.0	0.15	4	500	0	9	;
	36	848	10000	0.0	0.0	0.15	4	500	0	9	;
	36	36	1000	3.75	0.08333333333333333	0.15	4	45	0	8	;
	37	528	850	0.23397	0.007799	0.15	4	30	0	0	;
	37	226	850	0.10851999999999999	0.003617333333333333	0.15	4	30	0	0	;
	37	967	850	0.24536000000000002	0.008178666666666667	0.15	4	30	0	0	;
	38	393	600	2.66638	0.0533276	0.15	4	50	0	0	;
	38	18	10000	0.0	0.0	0.15	4	500	0	0	;
	39	114	900	0.2508	0.003135	0.15	4	80	0	0	;
	39	141	900	0.03083	0.000385375	0.15	4	80	0	0	;
	40	424	1200	0.49895999999999996	0.004157999999999999	0.15	4	120	0	1	;
	41	917	900	2.53972	0.0317465	0.15	4	80	0	0	;
	41	238	900	1.67811	0.020976375	0.15	4	80	0	0	;
	42	865	600	0.15835	0.005278333333333333	0.15	4	30	0	0	;
	42	55	850	0.056060000000000006	0.001868666666666667	0.15	4	30	0	0	;
	42	897	850	0.04185	0.001395	0.15	4	30	0	0	;
	43	868	600	0.00842	0.0001684	0.15	4	50	0	0	;
	43	489	600	5.0490699999999995	0.10098139999999999	0.15	4	50	0	0	;
	44	1235	900	0.12422	0.0024844	0.15	4	50	0	0	;
	44	598	900	0.03344	0.0006688	0.15	4	50	0	0	;
	44	936	900	0.14186	0.0028372000000000002	0.15	4	50	0	0	;
	44	410	900	0.17351	0.0034702	0.15	4	50	0	0	;
	45	348	900	0.0233	0.00046600000000000005	0.15	4	50	0	0	;
	45	667	900	0.13374	0.0026747999999999997	0.15	4	50	0	0	;
	46	991	900	0.02471	0.0004942	0.15	4	50	0	0	;
	46	598	900	0.06695999999999999	0.0013391999999999998	0.15	4	50	0	0	;
	47	1256	900	2.00816	0.025102000000000003	0.15	4	80	0	0	;
	47	1167	900	0.43006	0.00537575	0.15	4	80	0	0	;
	48	515	900	0.03939	0.0007878000000000001	0.15	4	50	0	0	;
	48	123	900	0.30656	0.0061312	0.15	4	50	0	0	;
	49	677	1200	0.08120000000000001	0.0016240000000000002	0.15	4	50	0	0	;
	49	597	1200	0.50629	0.0101258	0.15	4	50	0	0	;
	50	58	600	0.48185	0.016061666666666665	0.15	4	30	0	0	;
	50	394	900	2.19489	0.0438978	0.15	4	50	0	0	;
	51	375	850	0.037509999999999995	0.0012503333333333331	0.15	4	30	0	0	;
	51	538	850	0.0193	0.0006433333333333333	0.15	4	30	0	0	;
	51	923	850	0.0246	0.00082	0.15	4	30	0	0	;
	52	392	900	0.39536	0.004942	0.15	4	80	0	0	;
	52	581	600	1.21986	0.024397199999999997	0.15	4	50	0	0	;
	52	839	900	0.48235	0.006029375	0.15	4	80	0	0	;
	53	617	850	0.09629	0.0032096666666666667	0.15	4	30	0	0	;
	53	697	850	0.15335	0.005111666666666666	0.15	4	30	0	0	;
	54	628	850	0.20815999999999998	0.006938666666666666	0.15	4	30	0	0	;
	54	1150	850	0.05971	0.001990333333333333	0.15	4	30	0	0	;
	55	865	850	0.05318	0.0017726666666666665	0.15	4	30	0	0	;
	55	42	850	0.056060000000000006	0.001868666666666667	0.15	4	30	0	0	;
	55	897	850	0.19635	0.006545	0.15	4	30	0	0	;
	56	452	850	0.0269	0.0008966666666666667	0.15	4	30	0	0	;
	56	1238	850	0.01662	0.000554	0.15	4	30	0	0	;
	56	1292	850	0.01688	0.0005626666666666666	0.15	4	30	0	0	;
	56	302	850	0.07479000000000001	0.0024930000000000004	0.15	4	30	0	0	;
	57	1129	1200	0.0046500000000000005	9.300000000000001e-05	0.15	4	50	0	0	;
	57	118	1200	0.07495	0.0014990000000000001	0.15	4	50	0	0	;
	57	513	850	0.05614	0.0018713333333333334	0.15	4	30	0	0	;
	58	50	600	0.48185	0.016061666666666665	0.15	4	30	0	0	;
	58	1228	600	0.16097	0.005365666666666667	0.15	4	30	0	0	;
	59	561	1200	0.43874	0.0043874000000000005	0.15	4	100	0	0	;
	59	66	1200	0.49085	0.0049085	0.15	4	100	0	0	;
	59	710	600	0.10754000000000001	0.003584666666666667	0.15	4	30	0	0	;
	60	917	900	0.0461	0.00057625	0.15	4	80	0	0	;
	60	894	900	0.9249400000000001	0.018498800000000003	0.15	4	50	0	0	;
	61	536	850	0.32572	0.010857333333333333	0.15	4	30	0	0	;
	61	1132	255	0.6900499999999999	0.023001666666666663	0.15	4	30	0	0	;
	61	1232	600	0.09401000000000001	0.0018802000000000003	0.15	4	50	0	0	;
	62	802	850	0.12464	0.004154666666666667	0.15	4	30	0	0	;
	62	826	850	0.24541	0.008180333333333333	0.15	4	30	0	0	;
	62	380	850	0.37563	0.012521000000000001	0.15	4	30	0	0	;
	63	1281	850	0.03706	0.0012353333333333335	0.15	4	30	0	0	;
	63	492	850	0.09869	0.003289666666666667	0.15	4	30	0	0	;
	63	841	850	0.053009999999999995	0.001767	0.15	4	30	0	0	;
	64	82	1200	0.0438	0.0008759999999999999	0.15	4	50	0	0	;
	64	1293	1200	0.01758	0.0003516	0.15	4	50	0	0	;
	64	694	1200	0.01534	0.0003068	0.15	4	50	0	0	;
	66	59	1200	0.49085	0.0049085	0.15	4	100	0	0	;
	66	1195	600	0.17759	0.005919666666666667	0.15	4	30	0	0	;
	66	995	1200	0.99386	0.009938599999999999	0.15	4	100	0	0	;
	67	144	1200	0.15258000000000002	0.0015258000000000001	0.15	4	100	0	0	;
	67	808	1200	0.18636000000000003	0.0037272000000000004	0.15	4	50	0	0	;
	67	639	900	0.08726	0.0017452000000000001	0.15	4	50	0	0	;
	68	1057	900	0.11629	0.0023258000000000003	0.15	4	50	0	0	;
	68	117	850	0.11462	0.0038206666666666667	0.15	4	30	0	0	;
	68	1069	900	0.10571	0.0021142	0.15	4	50	0	0	;
	69	1090	600	0.19169999999999998	0.006389999999999999	0.15	4	30	0	0	;
	69	197	850	0.3865	0.012883333333333333	0.15	4	30	0	0	;
	69	1196	600	0.02453	0.0008176666666666666	0.15	4	30	0	0	;
	70	561	600	0.26903	0.008967666666666667	0.15	4	30	0	0	;
	70	710	600	0.13747	0.004582333333333333	0.15	4	30	0	0	;
	70	86	600	0.18293	0.006097666666666667	0.15	4	30	0	0	;
	71	454	4000	0.31264	0.002605333333333333	0.15	4	120	0	1	;
	72	6	10000	0.0	0.0	0.15	4	500	0	0	;
	72	1175	1200	0.80112	0.008011200000000001	0.15	4	100	0	0	;
	73	1140	850	0.09381	0.003127	0.15	4	30	0	0	;
	73	685	850	0.1635	0.00545	0.15	4	30	0	0	;
	73	310	255	0.2021	0.006736666666666667	0.15	4	30	0	0	;
	74	516	1200	0.0882	0.001764	0.15	4	50	0	0	;
	74	164	1200	0.07117	0.0014234	0.15	4	50	0	0	;
	74	1141	850	0.13647	0.004549	0.15	4	30	0	0	;
	75	1096	4000	0.40648	0.0033873333333333333	0.15	4	120	0	1	;
	76	293	900	1.04756	0.0130945	0.15	4	80	0	0	;
	76	174	900	0.23645	0.002955625	0.15	4	80	0	0	;
	76	735	600	0.55821	0.011164199999999999	0.15	4	50	0	0	;
	77	396	4000	0.05865	0.00048875	0.15	4	120	0	1	;
	78	272	850	0.02041	0.0006803333333333334	0.15	4	30	0	0	;
	78	1143	850	0.06664	0.0022213333333333334	0.15	4	30	0	0	;
	78	1178	850	0.20689	0.006896333333333333	0.15	4	30	0	0	;
	79	627	900	0.11031	0.0022062	0.15	4	50	0	0	;
	79	1012	900	0.01081	0.0002162	0.15	4	50	0	0	;
	79	289	850	0.08729	0.0029096666666666667	0.15	4	30	0	0	;
	80	611	850	0.18774000000000002	0.0062580000000000005	0.15	4	30	0	0	;
	80	805	850	0.09681000000000001	0.0032270000000000003	0.15	4	30	0	0	;
	80	605	850	0.12504	0.004168000000000001	0.15	4	30	0	0	;
	81	864	850	0.19449	0.006483	0.15	4	30	0	0	;
	81	862	850	0.07845	0.002615	0.15	4	30	0	0	;
	81	319	850	0.2305	0.007683333333333334	0.15	4	30	0	0	;
	82	64	1200	0.0438	0.0008759999999999999	0.15	4	50	0	0	;
	82	276	600	0.14234	0.004744666666666666	0.15	4	30	0	0	;
	82	1222	1200	0.41255000000000003	0.008251000000000001	0.15	4	50	0	0	;
	83	673	600	3.12812	0.0625624	0.15	4	50	0	0	;
	83	1165	900	0.77454	0.00968175	0.15	4	80	0	0	;
	84	564	850	1.01429	0.03380966666666666	0.15	4	30	0	0	;
	84	92	850	0.23409	0.007803	0.15	4	30	0	0	;
	85	275	900	0.01723	0.0003446	0.15	4	50	0	0	;
	85	308	900	0.02002	0.0004004	0.15	4	50	0	0	;
	85	991	900	0.09061	0.0018122	0.15	4	50	0	0	;
	86	1139	600	0.08195000000000001	0.002731666666666667	0.15	4	30	0	0	;
	86	691	600	1.11592	0.03719733333333333	0.15	4	30	0	0	;
	86	70	600	0.18293	0.006097666666666667	0.15	4	30	0	0	;
	87	779	900	0.0851	0.001702	0.15	4	50	0	0	;
	87	1109	900	0.06749	0.0013498	0.15	4	50	0	0	;
	87	270	850	0.04814	0.0016046666666666668	0.15	4	30	0	0	;
	88	633	850	0.08635	0.002878333333333333	0.15	4	30	0	0	;
	88	660	850	0.06301	0.0021003333333333334	0.15	4	30	0	0	;
	88	1284	850	0.18928	0.0063093333333333335	0.15	4	30	0	0	;
	90	626	4000	0.02038	0.00016983333333333333	0.15	4	120	0	1	;
	92	259	850	0.11344	0.003781333333333333	0.15	4	30	0	0	;
	92	84	850	0.23409	0.007803	0.15	4	30	0	0	;
	93	976	850	0.2709	0.00903	0.15	4	30	0	0	;
	93	737	850	0.12065000000000001	0.004021666666666667	0.15	4	30	0	0	;
	93	608	850	0.20385	0.006795	0.15	4	30	0	0	;
	93	991	850	0.10141	0.0033803333333333333	0.15	4	30	0	0	;
	94	596	850	0.13357	0.004452333333333333	0.15	4	30	0	0	;
	94	326	600	0.21330000000000002	0.007110000000000001	0.15	4	30	0	0	;
	94	1190	850	0.00937	0.00031233333333333335	0.15	4	30	0	0	;
	95	105	4000	0.05324	0.0004436666666666667	0.15	4	120	0	1	;
	96	1194	900	0.17693	0.0035386000000000003	0.15	4	50	0	0	;
	96	855	900	0.05034	0.00062925	0.15	4	80	0	0	;
	97	296	1200	0.42686	0.0042686	0.15	4	100	0	0	;
	97	725	1200	0.01779	0.00017790000000000001	0.15	4	100	0	0	;
	98	1067	900	0.38523	0.004815375	0.15	4	80	0	0	;
	98	1030	900	0.25397	0.0031746249999999995	0.15	4	80	0	0	;
	99	476	900	0.02123	0.00042459999999999997	0.15	4	50	0	0	;
	99	1085	1200	0.14358	0.0028716	0.15	4	50	0	0	;
	100	260	850	0.12589	0.004196333333333333	0.15	4	30	0	0	;
	100	450	900	0.09364	0.0011705	0.15	4	80	0	0	;
	100	1019	900	0.0255	0.00031874999999999997	0.15	4	80	0	0	;
	101	466	4000	0.052520000000000004	0.0004376666666666667	0.15	4	120	0	0	;
	101	863	4000	0.0172	0.00014333333333333334	0.15	4	120	0	0	;
	102	116	850	0.17878	0.005959333333333333	0.15	4	30	0	0	;
	102	645	900	0.03673	0.0007346	0.15	4	50	0	0	;
	102	155	900	0.1525	0.0030499999999999998	0.15	4	50	0	0	;
	103	484	1200	0.02775	0.000555	0.15	4	50	0	0	;
	103	1189	600	0.14697	0.004899	0.15	4	30	0	0	;
	103	1005	1200	0.04952	0.0009904	0.15	4	50	0	0	;
	104	601	1200	0.02588	0.0005176	0.15	4	50	0	0	;
	104	1206	1200	0.030010000000000002	0.00030010000000000003	0.15	4	100	0	0	;
	105	202	4000	0.23696	0.0019746666666666667	0.15	4	120	0	1	;
	106	1128	900	0.5562699999999999	0.011125399999999999	0.15	4	50	0	0	;
	106	723	600	0.43172000000000005	0.014390666666666668	0.15	4	30	0	0	;
	106	1271	900	0.18588	0.0037175999999999997	0.15	4	50	0	0	;
	107	546	900	0.02884	0.0005768	0.15	4	50	0	0	;
	107	539	900	0.07514	0.0015027999999999999	0.15	4	50	0	0	;
	107	397	850	0.41731999999999997	0.013910666666666665	0.15	4	30	0	0	;
	108	648	850	0.15474000000000002	0.005158	0.15	4	30	0	0	;
	108	1149	850	0.30252999999999997	0.010084333333333332	0.15	4	30	0	0	;
	109	745	900	0.84654	0.01058175	0.15	4	80	0	0	;
	109	1030	900	0.50496	0.006312	0.15	4	80	0	0	;
	110	648	900	0.00417	8.340000000000001e-05	0.15	4	50	0	0	;
	110	384	900	0.00721	0.0001442	0.15	4	50	0	0	;
	110	1259	850	0.12296	0.004098666666666666	0.15	4	30	0	0	;
	111	795	900	0.046009999999999995	0.0009201999999999999	0.15	4	50	0	0	;
	111	1180	850	0.42724	0.014241333333333333	0.15	4	30	0	0	;
	111	922	900	0.17887999999999998	0.0035776	0.15	4	50	0	0	;
	112	750	900	0.1699	0.0021237499999999998	0.15	4	80	0	0	;
	112	926	900	0.09043000000000001	0.001130375	0.15	4	80	0	0	;
	113	586	1200	0.01303	0.0002606	0.15	4	50	0	0	;
	113	164	1200	0.0242	0.000484	0.15	4	50	0	0	;
	113	414	1200	0.09818	0.0019636000000000002	0.15	4	50	0	0	;
	114	839	900	0.05407	0.000675875	0.15	4	80	0	0	;
	114	39	900	0.2508	0.003135	0.15	4	80	0	0	;
	115	435	900	0.15134999999999998	0.001891875	0.15	4	80	0	0	;
	115	989	900	0.39061	0.0078122	0.15	4	50	0	0	;
	115	535	900	0.37189999999999995	0.007437999999999999	0.15	4	50	0	0	;
	116	192	850	0.12745	0.004248333333333334	0.15	4	30	0	0	;
	116	586	900	0.05199	0.0010398	0.15	4	50	0	0	;
	116	102	850	0.17878	0.005959333333333333	0.15	4	30	0	0	;
	117	570	900	0.06876	0.0013752	0.15	4	50	0	0	;
	117	68	850	0.11462	0.0038206666666666667	0.15	4	30	0	0	;
	117	382	900	0.11026999999999999	0.0022053999999999997	0.15	4	50	0	0	;
	118	856	1200	0.10696	0.0021392	0.15	4	50	0	0	;
	118	491	900	0.15111000000000002	0.0030222000000000005	0.15	4	50	0	0	;
	118	57	1200	0.07495	0.0014990000000000001	0.15	4	50	0	0	;
	119	283	600	0.09298000000000001	0.0030993333333333337	0.15	4	30	0	0	;
	119	810	850	0.44549	0.014849666666666667	0.15	4	30	0	0	;
	120	488	600	0.76086	0.0152172	0.15	4	50	0	0	;
	120	379	600	1.2400799999999998	0.024801599999999997	0.15	4	50	0	0	;
	121	616	850	0.2521	0.008403333333333334	0.15	4	30	0	0	;
	121	306	850	0.3982	0.013273333333333333	0.15	4	30	0	0	;
	121	1011	600	0.18719999999999998	0.006239999999999999	0.15	4	30	0	0	;
	122	1263	850	0.16515000000000002	0.005505	0.15	4	30	0	0	;
	122	1275	900	0.11081	0.0022162	0.15	4	50	0	0	;
	122	1119	900	0.01644	0.00032879999999999997	0.15	4	50	0	0	;
	703	562	900	0.1752	0.00219	0.15	4	80	0	0	;
	703	1036	900	0.13603	0.001700375	0.15	4	80	0	0	;
	703	534	850	0.24106	0.008035333333333334	0.15	4	30	0	0	;
	124	352	900	0.14214	0.0028428	0.15	4	50	0	0	;
	124	1273	850	0.11769	0.003923	0.15	4	30	0	0	;
	124	522	900	0.21612	0.0043224000000000005	0.15	4	50	0	0	;
	125	1023	850	0.18246	0.006082000000000001	0.15	4	30	0	0	;
	125	1262	1200	0.01267	0.00025340000000000003	0.15	4	50	0	0	;
	125	983	1200	0.0324	0.0006479999999999999	0.15	4	50	0	0	;
	126	914	600	0.06726	0.0013452	0.15	4	50	0	0	;
	126	630	600	0.10556	0.0021112	0.15	4	50	0	0	;
	126	351	600	0.02471	0.0004942	0.15	4	50	0	0	;
	127	802	850	0.0757	0.0025233333333333336	0.15	4	30	0	0	;
	127	1214	600	0.18553999999999998	0.0061846666666666664	0.15	4	30	0	0	;
	127	334	850	0.20662	0.006887333333333333	0.15	4	30	0	0	;
	128	1176	1200	0.44251	0.0044251	0.15	4	100	0	0	;
	128	151	1200	0.28179000000000004	0.005635800000000001	0.15	4	50	0	0	;
	130	1083	600	0.05762	0.0019206666666666667	0.15	4	30	0	0	;
	130	774	600	0.05148	0.0017159999999999999	0.15	4	30	0	0	;
	130	1038	600	0.13215000000000002	0.004405000000000001	0.15	4	30	0	0	;
	131	787	850	0.18738999999999997	0.006246333333333332	0.15	4	30	0	0	;
	131	334	850	0.31964	0.010654666666666666	0.15	4	30	0	0	;
	132	963	850	0.56737	0.018912333333333333	0.15	4	30	0	0	;
	132	534	850	0.07937999999999999	0.002646	0.15	4	30	0	0	;
	133	263	4000	0.054439999999999995	0.0004536666666666666	0.15	4	120	0	1	;
	134	1121	4000	1.70788	0.014232333333333335	0.15	4	120	0	1	;
	135	1035	850	0.01678	0.0005593333333333333	0.15	4	30	0	0	;
	135	399	850	0.07041	0.002347	0.15	4	30	0	0	;
	135	311	850	0.01277	0.0004256666666666667	0.15	4	30	0	0	;
	136	377	850	0.15563	0.005187666666666666	0.15	4	30	0	0	;
	136	748	850	0.05586	0.001862	0.15	4	30	0	0	;
	136	1236	850	0.11320000000000001	0.003773333333333334	0.15	4	30	0	0	;
	137	1200	900	0.20153000000000001	0.0040306000000000005	0.15	4	50	0	0	;
	137	473	900	0.019129999999999998	0.0003826	0.15	4	50	0	0	;
	138	242	850	0.0185	0.0006166666666666666	0.15	4	30	0	0	;
	138	580	850	0.04102	0.0013673333333333335	0.15	4	30	0	0	;
	138	874	850	0.03984	0.001328	0.15	4	30	0	0	;
	139	1132	1	1.2177799999999999	0.024355599999999998	0.15	4	50	0	0	;
	140	224	850	0.07118000000000001	0.002372666666666667	0.15	4	30	0	0	;
	140	300	850	0.05323	0.0017743333333333333	0.15	4	30	0	0	;
	140	1014	850	0.02468	0.0008226666666666666	0.15	4	30	0	0	;
	141	839	600	0.57884	0.0115768	0.15	4	50	0	0	;
	141	1271	900	0.055009999999999996	0.0011002	0.15	4	50	0	0	;
	141	39	900	0.03083	0.000385375	0.15	4	80	0	0	;
	142	1209	1200	0.29075	0.005815	0.15	4	50	0	0	;
	142	1052	1200	0.03535	0.000707	0.15	4	50	0	0	;
	143	873	4000	0.39332	0.0032776666666666666	0.15	4	120	0	1	;
	144	67	1200	0.15258000000000002	0.0015258000000000001	0.15	4	100	0	0	;
	144	702	600	0.1278	0.001278	0.15	4	100	0	0	;
	145	640	850	0.26705	0.008901666666666667	0.15	4	30	0	0	;
	145	394	850	0.038770000000000006	0.0012923333333333335	0.15	4	30	0	0	;
	146	1299	850	0.0356	0.0011866666666666666	0.15	4	30	0	0	;
	146	1110	850	0.10191	0.003397	0.15	4	30	0	0	;
	146	1223	850	0.07403	0.0024676666666666666	0.15	4	30	0	0	;
	707	322	900	0.1409	0.00176125	0.15	4	80	0	0	;
	707	339	900	0.30643	0.0038303749999999996	0.15	4	80	0	0	;
	707	741	850	0.38991000000000003	0.012997000000000002	0.15	4	30	0	0	;
	148	152	4000	0.25404	0.002117	0.15	4	120	0	0	;
	148	1201	4000	0.26874000000000003	0.0022395	0.15	4	120	0	0	;
	149	601	1200	0.022879999999999998	0.00045759999999999996	0.15	4	50	0	0	;
	149	1095	1200	0.05077	0.0010154	0.15	4	50	0	0	;
	150	642	4000	0.019350000000000003	0.00016125000000000002	0.15	4	120	0	1	;
	151	128	1200	0.28179000000000004	0.005635800000000001	0.15	4	50	0	0	;
	151	584	1200	0.07695	0.001539	0.15	4	50	0	0	;
	151	298	850	0.22598	0.007532666666666666	0.15	4	30	0	0	;
	152	970	4000	1.01304	0.008442	0.15	4	120	0	0	;
	152	148	4000	0.25404	0.002117	0.15	4	120	0	0	;
	153	636	900	0.06885	0.001377	0.15	4	50	0	0	;
	153	1230	850	0.05224	0.0017413333333333334	0.15	4	30	0	0	;
	153	1014	850	0.045200000000000004	0.0015066666666666668	0.15	4	30	0	0	;
	154	899	850	0.06625	0.0022083333333333334	0.15	4	30	0	0	;
	154	982	900	0.10167	0.0020334	0.15	4	50	0	0	;
	154	302	900	0.01056	0.0002112	0.15	4	50	0	0	;
	155	686	1200	0.01034	0.0002068	0.15	4	50	0	0	;
	155	102	900	0.1525	0.0030499999999999998	0.15	4	50	0	0	;
	155	414	1200	0.0175	0.00035000000000000005	0.15	4	50	0	0	;
	156	432	850	0.20396	0.006798666666666666	0.15	4	30	0	0	;
	156	1204	850	0.19412000000000001	0.006470666666666667	0.15	4	30	0	0	;
	156	1051	850	0.31565	0.010521666666666667	0.15	4	30	0	0	;
	157	820	850	0.13701	0.004567	0.15	4	30	0	0	;
	157	1026	900	0.17356	0.0034712	0.15	4	50	0	0	;
	157	676	900	0.06799	0.0013598	0.15	4	50	0	0	;
	158	272	850	0.03505	0.0011683333333333333	0.15	4	30	0	0	;
	158	644	850	0.17927	0.005975666666666667	0.15	4	30	0	0	;
	158	233	850	0.05054	0.0016846666666666668	0.15	4	30	0	0	;
	159	456	850	0.08766	0.002922	0.15	4	30	0	0	;
	159	586	1200	0.00725	0.000145	0.15	4	50	0	0	;
	159	164	1200	0.010060000000000001	0.0002012	0.15	4	50	0	0	;
	160	460	900	0.00478	9.56e-05	0.15	4	50	0	0	;
	160	1091	900	0.00509	0.0001018	0.15	4	50	0	0	;
	160	924	900	0.13388999999999998	0.0026777999999999997	0.15	4	50	0	0	;
	161	916	850	0.11370000000000001	0.0037900000000000004	0.15	4	30	0	0	;
	161	551	850	0.00422	0.00014066666666666665	0.15	4	30	0	0	;
	162	457	900	0.05166	0.0010332	0.15	4	50	0	0	;
	162	627	900	0.056600000000000004	0.0011320000000000002	0.15	4	50	0	0	;
	162	719	850	0.060969999999999996	0.002032333333333333	0.15	4	30	0	0	;
	163	518	850	0.1358	0.004526666666666667	0.15	4	30	0	0	;
	163	1118	850	0.03791	0.0012636666666666666	0.15	4	30	0	0	;
	164	113	1200	0.0242	0.000484	0.15	4	50	0	0	;
	164	74	1200	0.07117	0.0014234	0.15	4	50	0	0	;
	164	159	1200	0.010060000000000001	0.0002012	0.15	4	50	0	0	;
	710	59	600	0.10754000000000001	0.003584666666666667	0.15	4	30	0	0	;
	710	691	600	0.52826	0.017608666666666665	0.15	4	30	0	0	;
	710	70	600	0.13747	0.004582333333333333	0.15	4	30	0	0	;
	166	1272	4000	1.0830499999999998	0.009025416666666666	0.15	4	120	0	1	;
	167	817	4000	0.0174	0.000145	0.15	4	120	0	0	;
	167	1172	4000	0.6905	0.005754166666666667	0.15	4	120	0	0	;
	168	274	900	0.56177	0.007022125	0.15	4	80	0	0	;
	168	798	900	0.28889	0.0036111249999999998	0.15	4	80	0	0	;
	168	415	600	0.52319	0.0104638	0.15	4	50	0	0	;
	169	611	850	0.12493000000000001	0.004164333333333334	0.15	4	30	0	0	;
	169	605	850	0.02188	0.0007293333333333334	0.15	4	30	0	0	;
	170	507	1200	1.0328	0.010327999999999999	0.15	4	100	0	0	;
	170	572	1200	1.2929300000000001	0.012929300000000001	0.15	4	100	0	0	;
	171	33	10000	0.0	0.0	0.15	4	500	0	0	;
	171	947	850	0.16405	0.005468333333333334	0.15	4	30	0	0	;
	171	659	850	0.11614000000000001	0.0038713333333333334	0.15	4	30	0	0	;
	171	933	850	0.12539	0.004179666666666667	0.15	4	30	0	0	;
	172	690	1200	0.2465	0.00493	0.15	4	50	0	0	;
	172	1070	1200	0.023960000000000002	0.00047920000000000005	0.15	4	50	0	0	;
	173	1207	4000	0.0287	0.00023916666666666666	0.15	4	120	0	1	;
	174	1138	1200	0.47413	0.0047413	0.15	4	100	0	0	;
	174	76	900	0.23645	0.002955625	0.15	4	80	0	0	;
	174	349	850	0.08871	0.002957	0.15	4	30	0	0	;
	175	400	900	0.17986000000000002	0.0035972000000000005	0.15	4	50	0	0	;
	175	221	900	0.41258	0.0082516	0.15	4	50	0	0	;
	175	341	900	0.04761	0.0009521999999999999	0.15	4	50	0	0	;
	176	994	900	0.05268	0.0010536	0.15	4	50	0	0	;
	176	186	900	0.20943	0.0041886	0.15	4	50	0	0	;
	176	853	850	0.27848	0.009282666666666666	0.15	4	30	0	0	;
	177	1252	850	0.16756000000000001	0.005585333333333334	0.15	4	30	0	0	;
	177	778	850	0.052829999999999995	0.0017609999999999998	0.15	4	30	0	0	;
	177	662	850	0.32204	0.010734666666666667	0.15	4	30	0	0	;
	178	776	1200	0.0159	0.00031800000000000003	0.15	4	50	0	0	;
	178	766	1200	0.12434999999999999	0.0024869999999999996	0.15	4	50	0	0	;
	178	223	1200	0.00877	0.0001754	0.15	4	50	0	0	;
	179	1074	850	0.13057	0.004352333333333333	0.15	4	30	0	0	;
	179	994	900	0.14556	0.0029112	0.15	4	50	0	0	;
	179	623	900	0.13551	0.0027102	0.15	4	50	0	0	;
	180	617	850	0.16247999999999999	0.005416	0.15	4	30	0	0	;
	180	378	850	0.12362000000000001	0.004120666666666667	0.15	4	30	0	0	;
	180	442	850	0.20419	0.0068063333333333335	0.15	4	30	0	0	;
	181	520	850	0.0146	0.00048666666666666666	0.15	4	30	0	0	;
	181	513	850	0.2226	0.0074199999999999995	0.15	4	30	0	0	;
	181	1142	850	0.17595	0.0058649999999999996	0.15	4	30	0	0	;
	182	1023	850	0.08673	0.002891	0.15	4	30	0	0	;
	182	955	850	0.06199	0.0020663333333333337	0.15	4	30	0	0	;
	182	599	600	1.4865599999999999	0.049552	0.15	4	30	0	0	;
	713	1130	1200	0.18878999999999999	0.0037757999999999997	0.15	4	50	0	0	;
	713	245	850	0.13961	0.004653666666666667	0.15	4	30	0	0	;
	713	742	1200	0.23934	0.0047868	0.15	4	50	0	0	;
	184	1152	1200	0.04704	0.0009408	0.15	4	50	0	0	;
	184	240	1200	0.0159	0.00031800000000000003	0.15	4	50	0	0	;
	184	1046	1200	0.01532	0.0003064	0.15	4	50	0	0	;
	185	578	1200	0.21243	0.0042486	0.15	4	50	0	0	;
	185	243	1200	0.00915	0.000183	0.15	4	50	0	0	;
	185	646	1200	0.01396	0.0002792	0.15	4	50	0	0	;
	186	176	900	0.20943	0.0041886	0.15	4	50	0	0	;
	186	968	900	0.13656000000000001	0.0027312000000000005	0.15	4	50	0	0	;
	186	501	850	0.17253	0.005751	0.15	4	30	0	0	;
	187	1280	850	0.17828	0.005942666666666666	0.15	4	30	0	0	;
	187	282	850	0.0664	0.002213333333333333	0.15	4	30	0	0	;
	187	766	850	0.12456999999999999	0.0041523333333333325	0.15	4	30	0	0	;
	188	1219	4000	0.33914999999999995	0.0028262499999999998	0.15	4	120	0	1	;
	714	1081	900	0.09537999999999999	0.00119225	0.15	4	80	0	0	;
	714	1019	900	0.28070999999999996	0.0035088749999999994	0.15	4	80	0	0	;
	714	798	900	0.15803	0.001975375	0.15	4	80	0	0	;
	714	415	900	0.11198000000000001	0.0013997500000000002	0.15	4	80	0	0	;
	190	515	1	0.90199	0.03006633333333333	0.15	4	30	0	0	;
	190	949	600	0.07521	0.002507	0.15	4	30	0	0	;
	191	1185	850	0.19876	0.006625333333333333	0.15	4	30	0	0	;
	191	1133	850	0.12336	0.004112	0.15	4	30	0	0	;
	192	456	850	0.06842000000000001	0.002280666666666667	0.15	4	30	0	0	;
	192	1154	850	0.24253	0.008084333333333334	0.15	4	30	0	0	;
	192	116	850	0.12745	0.004248333333333334	0.15	4	30	0	0	;
	193	755	4000	0.04487	0.00037391666666666666	0.15	4	120	0	1	;
	194	809	900	0.6764600000000001	0.008455750000000001	0.15	4	80	0	0	;
	194	206	900	0.1507	0.00188375	0.15	4	80	0	0	;
	195	857	850	0.11733	0.003911	0.15	4	30	0	0	;
	195	459	850	0.08070999999999999	0.002690333333333333	0.15	4	30	0	0	;
	195	1045	850	0.18055000000000002	0.006018333333333334	0.15	4	30	0	0	;
	196	833	850	0.09749	0.0032496666666666663	0.15	4	30	0	0	;
	196	285	900	0.019530000000000002	0.00024412500000000004	0.15	4	80	0	0	;
	196	1182	900	0.41581	0.005197625	0.15	4	80	0	0	;
	197	69	850	0.3865	0.012883333333333333	0.15	4	30	0	0	;
	197	1239	850	0.25724	0.008574666666666668	0.15	4	30	0	0	;
	198	556	850	0.15599000000000002	0.0051996666666666675	0.15	4	30	0	0	;
	198	247	850	0.11968999999999999	0.0039896666666666665	0.15	4	30	0	0	;
	199	1020	450	0.08326	0.0016652	0.15	4	50	0	0	;
	199	629	900	0.12422	0.0024844	0.15	4	50	0	0	;
	200	947	850	0.04101	0.001367	0.15	4	30	0	0	;
	200	244	850	0.13665	0.004555	0.15	4	30	0	0	;
	200	1092	850	0.07784	0.002594666666666667	0.15	4	30	0	0	;
	201	987	1200	0.34101	0.006820199999999999	0.15	4	50	0	0	;
	201	246	1200	0.04942	0.0009884	0.15	4	50	0	0	;
	202	821	4000	0.17919	0.00149325	0.15	4	120	0	1	;
	202	1181	4000	0.13132	0.0010943333333333332	0.15	4	120	0	1	;
	203	1091	900	0.031239999999999997	0.0006247999999999999	0.15	4	50	0	0	;
	203	275	900	0.019489999999999997	0.00038979999999999993	0.15	4	50	0	0	;
	203	1268	600	0.27905	0.009301666666666668	0.15	4	30	0	0	;
	204	267	850	0.35345	0.011781666666666666	0.15	4	30	0	0	;
	204	1215	850	0.07212	0.0024040000000000003	0.15	4	30	0	0	;
	204	1157	850	0.0515	0.0017166666666666665	0.15	4	30	0	0	;
	205	639	900	0.20662	0.0041324	0.15	4	50	0	0	;
	205	35	10000	0.0	0.0	0.15	4	500	0	0	;
	205	885	900	0.05458	0.0010915999999999999	0.15	4	50	0	0	;
	205	783	900	0.17299	0.0034598000000000003	0.15	4	50	0	0	;
	206	393	600	0.10543000000000001	0.0021086000000000004	0.15	4	50	0	0	;
	206	194	900	0.1507	0.00188375	0.15	4	80	0	0	;
	206	478	900	0.50551	0.006318875	0.15	4	80	0	0	;
	208	324	600	0.07962000000000001	0.0026540000000000005	0.15	4	30	0	0	;
	208	845	850	0.13588999999999998	0.004529666666666666	0.15	4	30	0	0	;
	208	494	850	0.10084	0.0033613333333333334	0.15	4	30	0	0	;
	209	964	600	0.062229999999999994	0.002074333333333333	0.15	4	30	0	0	;
	209	682	600	0.27534	0.009177999999999999	0.15	4	30	0	0	;
	210	1049	900	0.26214	0.0032767499999999997	0.15	4	80	0	0	;
	210	812	900	0.13447	0.001680875	0.15	4	80	0	0	;
	210	487	900	0.09276000000000001	0.0011595000000000002	0.15	4	80	0	0	;
	211	1076	850	0.06447	0.002149	0.15	4	30	0	0	;
	211	326	850	0.16627	0.005542333333333333	0.15	4	30	0	0	;
	211	687	850	0.08436	0.0028120000000000003	0.15	4	30	0	0	;
	212	1028	1200	0.01467	0.00029340000000000003	0.15	4	50	0	0	;
	212	638	900	0.32706999999999997	0.006541399999999999	0.15	4	50	0	0	;
	212	1093	1200	0.01746	0.0003492	0.15	4	50	0	0	;
	213	1216	850	0.0718	0.0023933333333333333	0.15	4	30	0	0	;
	213	974	850	0.16409	0.005469666666666667	0.15	4	30	0	0	;
	213	768	850	0.02417	0.0008056666666666667	0.15	4	30	0	0	;
	214	241	850	0.02887	0.0009623333333333334	0.15	4	30	0	0	;
	214	1047	850	0.07535	0.002511666666666667	0.15	4	30	0	0	;
	214	943	850	0.04001	0.0013336666666666666	0.15	4	30	0	0	;
	215	797	850	0.05273	0.0017576666666666667	0.15	4	30	0	0	;
	215	622	850	0.20814	0.006938	0.15	4	30	0	0	;
	215	1063	850	0.01214	0.00040466666666666667	0.15	4	30	0	0	;
	216	1042	900	0.11626	0.0023252	0.15	4	50	0	0	;
	216	972	600	0.15940000000000001	0.005313333333333334	0.15	4	30	0	0	;
	217	1277	600	0.54767	0.018255666666666667	0.15	4	30	0	0	;
	217	1255	850	0.03053	0.0010176666666666667	0.15	4	30	0	0	;
	218	320	600	0.38292000000000004	0.007658400000000001	0.15	4	50	0	0	;
	218	738	850	0.48818	0.016272666666666668	0.15	4	30	0	0	;
	219	291	1200	0.03939	0.0007878000000000001	0.15	4	50	0	0	;
	219	333	1200	0.0213	0.000426	0.15	4	50	0	0	;
	219	270	850	0.10429000000000001	0.0034763333333333334	0.15	4	30	0	0	;
	220	1168	1200	0.03737	0.0007474000000000001	0.15	4	50	0	0	;
	220	1099	850	0.11153	0.003717666666666667	0.15	4	30	0	0	;
	220	1083	1200	0.013009999999999999	0.0002602	0.15	4	50	0	0	;
	221	721	850	0.16633	0.005544333333333333	0.15	4	30	0	0	;
	221	933	900	0.34414999999999996	0.006882999999999999	0.15	4	50	0	0	;
	221	175	900	0.41258	0.0082516	0.15	4	50	0	0	;
	222	651	1200	0.15802000000000002	0.0031604000000000003	0.15	4	50	0	0	;
	222	261	1200	0.19977	0.0019977	0.15	4	100	0	0	;
	223	625	900	0.11433	0.0022866	0.15	4	50	0	0	;
	223	178	1200	0.00877	0.0001754	0.15	4	50	0	0	;
	223	554	1200	0.012320000000000001	0.0002464	0.15	4	50	0	0	;
	224	640	850	0.052840000000000005	0.0017613333333333335	0.15	4	30	0	0	;
	224	699	850	0.10486	0.0034953333333333334	0.15	4	30	0	0	;