<NUMBER OF ZONES> 37
<TOTAL OD FLOW> 15092.35
<END OF METADATA>

Origin 1
   1 :    0.00;   2 :   41.60;   3 :  129.35;   4 :   90.35;   5 :   87.75;
   6 :  115.70;   7 :   48.75;   8 :   42.25;   9 :   28.60;  10 :   12.35;
  11 :   92.30;  12 :   66.30;  13 :   81.90;  14 :   45.50;  15 :   55.25;
  16 :    3.25;  17 :   19.50;  18 :    6.50;  19 :   29.90;  20 :   16.25;
  21 :   29.25;  22 :    4.55;  23 :    9.10;  24 :   40.95;  25 :   11.05;
  26 :    9.10;  27 :   11.05;  28 :   89.70;  29 :   48.10;  30 :   69.55;
  31 :   65.00;  32 :  137.15;  33 :   47.45;  34 :   53.30;  35 :   31.85;
  36 :   12.35;  37 :   18.85;

Origin 2
   1 :   41.60;   2 :    0.00;   3 :   53.95;   4 :   53.30;   5 :   52.00;
   6 :   66.95;   7 :   16.25;   8 :   12.35;   9 :   10.40;  10 :    4.55;
  11 :   33.80;  12 :   22.75;  13 :   24.70;  14 :   13.65;  15 :   19.50;
  16 :    1.30;  17 :   42.90;  18 :    2.60;  19 :   13.00;  20 :    5.85;
  21 :   12.35;  22 :    1.30;  23 :    3.25;  24 :   54.60;  25 :    3.90;
  26 :    3.90;  27 :    4.55;  28 :   32.50;  29 :   14.95;  30 :   20.15;
  31 :   22.10;  32 :   57.85;  33 :   14.30;  34 :   16.90;  35 :    7.80;
  36 :    4.55;  37 :    6.50;

Origin 3
   1 :  139.10;   2 :   48.10;   3 :    0.00;   4 :   78.65;   5 :  131.30;
   6 :   57.20;   7 :   13.65;   8 :   13.65;   9 :   14.30;  10 :    6.50;
  11 :   26.00;  12 :   26.00;  13 :   39.65;  14 :   13.00;  15 :   69.55;
  16 :    6.50;  17 :   20.80;  18 :    3.25;  19 :   10.40;  20 :   92.95;
  21 :   14.30;  22 :   11.05;  23 :   22.10;  24 :    8.45;  25 :   23.40;
  26 :    4.55;  27 :    3.90;  28 :   34.45;  29 :   20.80;  30 :   35.10;
  31 :   32.50;  32 :   41.60;  33 :   21.45;  34 :   14.95;  35 :   11.05;
  36 :   24.70;  37 :   47.45;

Origin 4
   1 :  120.90;   2 :   53.30;   3 :   84.50;   4 :    0.00;   5 :   89.70;
   6 :   46.80;   7 :    7.80;   8 :    7.15;   9 :    8.45;  10 :    3.90;
  11 :   14.95;  12 :   14.95;  13 :   22.75;  14 :    7.15;  15 :   41.60;
  16 :    3.90;  17 :    8.45;  18 :    1.95;  19 :    5.85;  20 :   25.35;
  21 :    8.45;  22 :   10.40;  23 :   40.30;  24 :    5.20;  25 :   15.60;
  26 :    2.60;  27 :    2.60;  28 :   20.15;  29 :   11.70;  30 :   20.15;
  31 :   18.85;  32 :   24.70;  33 :   12.35;  34 :    8.45;  35 :    5.85;
  36 :   16.25;  37 :   42.25;

Origin 5
   1 :   87.75;   2 :   53.30;   3 :  130.65;   4 :  107.90;   5 :    0.00;
   6 :   30.55;   7 :    5.20;   8 :    4.55;   9 :    9.10;  10 :    4.55;
  11 :   12.35;  12 :   12.35;  13 :   20.15;  14 :    4.55;  15 :   42.90;
  16 :    4.55;  17 :    9.10;  18 :    2.60;  19 :    6.50;  20 :   20.80;
  21 :    9.10;  22 :    6.50;  23 :   12.35;  24 :    5.85;  25 :   83.20;
  26 :    3.25;  27 :    2.60;  28 :   16.90;  29 :    9.10;  30 :   17.55;
  31 :   15.60;  32 :   25.35;  33 :    9.10;  34 :    5.20;  35 :    3.25;
  36 :   19.50;  37 :   25.35;

Origin 6
   1 :   76.70;   2 :   35.10;   3 :   40.95;   4 :   29.25;   5 :   28.60;
   6 :    0.00;   7 :    3.90;   8 :    3.25;   9 :    7.80;  10 :    3.25;
  11 :   20.15;  12 :   18.20;  13 :   18.85;  14 :    8.45;  15 :   14.95;
  16 :    0.65;  17 :    7.80;  18 :    5.20;  19 :   43.55;  20 :    3.90;
  21 :  130.00;  22 :    4.55;  23 :    1.95;  24 :    4.55;  25 :    2.60;
  26 :    7.15;  27 :    3.90;  28 :   32.50;  29 :   18.20;  30 :   20.80;
  31 :   26.00;  32 :   43.55;  33 :   13.00;  34 :    8.45;  35 :   11.05;
  36 :    2.60;  37 :    4.55;

Origin 7
   1 :   37.70;   2 :   16.90;   3 :    7.15;   4 :    4.55;   5 :    4.55;
   6 :    4.55;   7 :    0.00;   8 :    2.60;   9 :    1.95;  10 :    0.65;
  11 :    7.15;  12 :    5.20;  13 :    5.20;  14 :    3.25;  15 :    4.55;
  16 :    0.00;  17 :    7.15;  18 :    0.65;  19 :    2.60;  20 :    1.30;
  21 :    2.60;  22 :    0.65;  23 :    0.65;  24 :    3.90;  25 :    0.65;
  26 :    0.65;  27 :    1.30;  28 :    7.15;  29 :    3.25;  30 :    4.55;
  31 :    4.55;  32 :   13.00;  33 :    3.25;  34 :    3.90;  35 :    1.95;
  36 :    0.65;  37 :    1.30;

Origin 8
   1 :   29.25;   2 :   12.35;   3 :    7.80;   4 :    4.55;   5 :    4.55;
   6 :    3.90;   7 :    2.60;   8 :    0.00;   9 :    2.60;  10 :    0.65;
  11 :    5.85;  12 :    3.90;  13 :    5.20;  14 :    2.60;  15 :    4.55;
  16 :    0.00;  17 :    5.20;  18 :    0.65;  19 :    1.95;  20 :    1.30;
  21 :    1.95;  22 :    0.65;  23 :    0.65;  24 :    3.25;  25 :    0.65;
  26 :    0.65;  27 :    0.65;  28 :    5.85;  29 :    2.60;  30 :    4.55;
  31 :    3.90;  32 :    9.75;  33 :    2.60;  34 :    2.60;  35 :    1.30;
  36 :    1.30;  37 :    1.30;

Origin 9
   1 :   22.10;   2 :    9.10;   3 :   20.15;   4 :   12.35;   5 :   11.70;
   6 :   12.35;   7 :    1.95;   8 :    1.30;   9 :    0.00;  10 :    5.85;
  11 :    9.75;  12 :    9.75;  13 :   14.30;  14 :    2.60;  15 :   25.35;
  16 :    1.30;  17 :    3.90;  18 :    1.30;  19 :    5.20;  20 :    3.25;
  21 :    7.15;  22 :    0.65;  23 :    1.95;  24 :    1.95;  25 :    2.60;
  26 :    1.95;  27 :    1.95;  28 :   14.30;  29 :    7.15;  30 :   14.30;
  31 :   13.00;  32 :   20.80;  33 :    7.80;  34 :    3.90;  35 :    1.95;
  36 :    2.60;  37 :    3.90;

Origin 10
   1 :    1.30;   2 :    0.65;   3 :    1.30;   4 :    0.65;   5 :    0.65;
   6 :    0.65;   7 :    0.00;   8 :    0.00;   9 :    0.65;  10 :    0.00;
  11 :    0.65;  12 :    0.65;  13 :    1.30;  14 :    0.00;  15 :    1.95;
  16 :    0.00;  17 :    0.00;  18 :    0.00;  19 :    0.65;  20 :    0.00;
  21 :    0.65;  22 :    0.00;  23 :    0.00;  24 :    0.00;  25 :    0.00;
  26 :    0.00;  27 :    0.00;  28 :    0.65;  29 :    0.65;  30 :    1.30;
  31 :    0.65;  32 :    1.30;  33 :    0.65;  34 :    0.00;  35 :    0.00;
  36 :    0.00;  37 :    0.00;

Origin 11
   1 :  153.40;   2 :   65.00;   3 :   40.95;   4 :   24.70;   5 :   23.40;
   6 :   38.35;   7 :   13.65;   8 :   11.05;   9 :   14.30;  10 :    5.85;
  11 :    0.00;  12 :   46.80;  13 :   37.70;  14 :   15.60;  15 :   27.30;
  16 :    1.30;  17 :   26.65;  18 :    4.55;  19 :   20.15;  20 :    7.15;
  21 :   22.10;  22 :    1.95;  23 :    3.90;  24 :   15.60;  25 :    4.55;
  26 :    6.50;  27 :    7.80;  28 :   53.95;  29 :   26.65;  30 :   35.75;
  31 :   42.25;  32 :   93.60;  33 :   28.60;  34 :   26.65;  35 :   11.05;
  36 :    5.20;  37 :    7.80;

Origin 12
   1 :  157.30;   2 :   66.30;   3 :   61.10;   4 :   37.05;   5 :   35.10;
   6 :   52.00;   7 :   13.65;   8 :   11.05;   9 :   21.45;  10 :    9.10;
  11 :   71.50;  12 :    0.00;  13 :   56.55;  14 :   17.55;  15 :   40.95;
  16 :    1.95;  17 :   27.95;  18 :    6.50;  19 :   26.65;  20 :   10.40;
  21 :   29.90;  22 :    2.60;  23 :    5.85;  24 :   15.60;  25 :    7.15;
  26 :    9.10;  27 :    9.75;  28 :   72.80;  29 :   35.75;  30 :   53.95;
  31 :   61.10;  32 :  118.30;  33 :   42.90;  34 :   29.90;  35 :   12.35;
  36 :    7.80;  37 :   12.35;

Origin 13
   1 :   13.65;   2 :    5.85;   3 :   11.05;   4 :    6.50;   5 :    6.50;
   6 :    5.85;   7 :    1.30;   8 :    0.65;   9 :    3.25;  10 :    1.30;
  11 :    5.85;  12 :    5.85;  13 :    0.00;  14 :    1.30;  15 :    6.50;
  16 :    0.65;  17 :    2.60;  18 :    0.65;  19 :    2.60;  20 :    1.95;
  21 :    3.25;  22 :    0.65;  23 :    1.30;  24 :    1.30;  25 :    1.30;
  26 :    1.30;  27 :    0.65;  28 :    6.50;  29 :    3.25;  30 :    6.50;
  31 :    6.50;  32 :   10.40;  33 :    4.55;  34 :    2.60;  35 :    1.30;
  36 :    1.30;  37 :    1.95;

Origin 14
   1 :   65.00;   2 :   27.30;   3 :   13.00;   4 :    7.80;   5 :    7.15;
   6 :   11.70;   7 :    5.85;   8 :    4.55;   9 :    3.90;  10 :    1.95;
  11 :   16.25;  12 :   11.70;  13 :    9.10;  14 :    0.00;  15 :    7.15;
  16 :    0.65;  17 :   11.05;  18 :    1.30;  19 :    7.15;  20 :    1.95;
  21 :    6.50;  22 :    0.65;  23 :    1.30;  24 :    6.50;  25 :    1.30;
  26 :    1.95;  27 :    2.60;  28 :   17.55;  29 :    7.80;  30 :    9.10;
  31 :   11.70;  32 :   31.20;  33 :    7.80;  34 :    9.75;  35 :    4.55;
  36 :    1.95;  37 :    2.60;

Origin 15
   1 :   60.45;   2 :   22.75;   3 :  118.95;   4 :   71.50;   5 :   70.20;
   6 :   29.90;   7 :    4.55;   8 :    4.55;   9 :   31.85;  10 :   14.95;
  11 :   23.40;  12 :   23.40;  13 :   34.45;  14 :    5.85;  15 :    0.00;
  16 :    7.15;  17 :    9.10;  18 :    3.90;  19 :   12.35;  20 :   20.15;
  21 :   16.90;  22 :    5.20;  23 :   11.05;  24 :    5.20;  25 :   14.30;
  26 :    5.20;  27 :    4.55;  28 :   33.80;  29 :   17.55;  30 :   34.45;
  31 :   31.20;  32 :   50.05;  33 :   18.20;  34 :    9.75;  35 :    5.20;
  36 :   15.60;  37 :   23.40;

Origin 16
   1 :    1.30;   2 :    0.65;   3 :    2.60;   4 :    1.30;   5 :    1.30;
   6 :    0.00;   7 :    0.00;   8 :    0.00;   9 :    0.00;  10 :    0.00;
  11 :    0.00;  12 :    0.00;  13 :    0.65;  14 :    0.00;  15 :    1.30;
  16 :    0.00;  17 :    0.00;  18 :    0.00;  19 :    0.00;  20 :    0.65;
  21 :    0.00;  22 :    0.00;  23 :    0.00;  24 :    0.00;  25 :    0.00;
  26 :    0.00;  27 :    0.00;  28 :    0.65;  29 :    0.00;  30 :    0.65;
  31 :    0.00;  32 :    0.65;  33 :    0.00;  34 :    0.00;  35 :    0.00;
  36 :    0.00;  37 :    0.65;

Origin 17
   1 :   32.50;   2 :   35.75;   3 :   13.00;   4 :    7.80;   5 :    7.15;
   6 :    8.45;   7 :   12.35;   8 :   11.05;   9 :    7.15;  10 :    4.55;
  11 :   19.50;  12 :   14.95;  13 :   15.60;  14 :   11.70;  15 :   10.40;
  16 :    3.90;  17 :    0.00;  18 :    1.30;  19 :    4.55;  20 :    1.95;
  21 :    4.55;  22 :    0.65;  23 :    1.30;  24 :   16.25;  25 :    1.30;
  26 :    1.30;  27 :    1.95;  28 :   18.85;  29 :   12.35;  30 :   14.30;
  31 :   14.95;  32 :   22.10;  33 :   11.70;  34 :   13.00;  35 :    9.75;
  36 :    5.20;  37 :    5.85;

Origin 18
   1 :    1.95;   2 :    0.65;   3 :    1.30;   4 :    0.65;   5 :    0.65;
   6 :    1.95;   7 :    0.00;   8 :    0.00;   9 :    0.65;  10 :    0.00;
  11 :    0.65;  12 :    0.65;  13 :    0.65;  14 :    0.00;  15 :    0.65;
  16 :    0.00;  17 :    0.65;  18 :    0.00;  19 :    3.25;  20 :    0.00;
  21 :    1.30;  22 :    0.00;  23 :    0.00;  24 :    0.00;  25 :    0.00;
  26 :    0.65;  27 :    0.00;  28 :    1.30;  29 :    0.65;  30 :    0.65;
  31 :    1.30;  32 :    1.95;  33 :    0.65;  34 :    0.65;  35 :    0.00;
  36 :    0.00;  37 :    0.00;

Origin 19
   1 :   52.65;   2 :   13.65;   3 :   26.00;   4 :   26.00;   5 :   26.00;
   6 :   26.65;   7 :    0.00;   8 :    0.00;   9 :    0.00;  10 :    0.00;
  11 :    0.00;  12 :    0.00;  13 :    0.00;  14 :    0.00;  15 :    0.00;
  16 :    0.00;  17 :    0.00;  18 :    0.00;  19 :    0.00;  20 :    0.00;
  21 :    0.00;  22 :    0.00;  23 :    0.00;  24 :    0.00;  25 :    0.00;
  26 :    0.00;  27 :    0.65;  28 :    0.65;  29 :    0.00;  30 :    0.00;
  31 :    0.65;  32 :    0.65;  33 :    0.00;  34 :    0.00;  35 :    0.00;
  36 :    0.00;  37 :    0.00;

Origin 20
   1 :   35.75;   2 :    3.90;   3 :   41.60;   4 :   14.95;   5 :   11.70;
   6 :   15.60;   7 :    1.95;   8 :    1.95;   9 :    7.80;  10 :    7.15;
  11 :    3.25;  12 :    3.25;  13 :    4.55;  14 :    1.95;  15 :   13.65;
  16 :    7.15;  17 :    1.30;  18 :    0.00;  19 :    1.30;  20 :    0.00;
  21 :    1.30;  22 :    1.30;  23 :    1.95;  24 :    0.65;  25 :    2.60;
  26 :    0.65;  27 :    0.65;  28 :    3.90;  29 :    2.60;  30 :    4.55;
  31 :    3.90;  32 :    4.55;  33 :    2.60;  34 :    1.95;  35 :    1.95;
  36 :    9.10;  37 :   11.70;

Origin 21
   1 :   19.50;   2 :    8.45;   3 :    9.75;   4 :    5.85;   5 :    5.85;
   6 :  126.10;   7 :    1.95;   8 :    1.30;   9 :    3.25;  10 :    1.30;
  11 :    7.80;  12 :    6.50;  13 :    7.15;  14 :    1.95;  15 :    6.50;
  16 :    0.65;  17 :    3.25;  18 :    1.95;  19 :    4.55;  20 :    1.95;
  21 :    0.00;  22 :    0.65;  23 :    0.65;  24 :    1.95;  25 :    1.30;
  26 :    3.25;  27 :    1.95;  28 :   13.00;  29 :    6.50;  30 :    7.80;
  31 :   10.40;  32 :   19.50;  33 :    5.85;  34 :    3.90;  35 :    1.95;
  36 :    1.30;  37 :    1.95;

Origin 22
   1 :    1.95;   2 :    0.65;   3 :    5.20;   4 :    4.55;   5 :    2.60;
   6 :    0.65;   7 :    0.00;   8 :    0.00;   9 :    0.00;  10 :    0.00;
  11 :    0.65;  12 :    0.65;  13 :    0.65;  14 :    0.00;  15 :    1.30;
  16 :    0.00;  17 :    0.00;  18 :    0.00;  19 :    0.00;  20 :    0.65;
  21 :    0.00;  22 :    0.00;  23 :    0.65;  24 :    0.00;  25 :    0.65;
  26 :    0.00;  27 :    0.00;  28 :    0.65;  29 :    0.00;  30 :    0.65;
  31 :    0.65;  32 :    0.65;  33 :    0.00;  34 :    0.00;  35 :    0.00;
  36 :    0.65;  37 :    1.30;

Origin 23
   1 :   10.40;   2 :    3.90;   3 :   26.65;   4 :   47.45;   5 :   13.65;
   6 :    2.60;   7 :    0.65;   8 :    0.65;   9 :    1.30;  10 :    0.65;
  11 :    1.95;  12 :    1.95;  13 :    3.25;  14 :    0.65;  15 :    7.15;
  16 :    0.65;  17 :    1.30;  18 :    0.00;  19 :    1.30;  20 :    4.55;
  21 :    1.30;  22 :    1.95;  23 :    0.00;  24 :    0.65;  25 :    2.60;
  26 :    0.65;  27 :    0.65;  28 :    3.25;  29 :    1.30;  30 :    3.25;
  31 :    2.60;  32 :    4.55;  33 :    1.30;  34 :    0.65;  35 :    0.65;
  36 :    3.25;  37 :    7.80;

Origin 24
   1 :   44.85;   2 :   60.45;   3 :    9.10;   4 :    5.20;   5 :    5.20;
   6 :    5.85;   7 :    4.55;   8 :    3.25;   9 :    2.60;  10 :    1.30;
  11 :    8.45;  12 :    5.85;  13 :    6.50;  14 :    3.90;  15 :    5.20;
  16 :    0.00;  17 :   19.50;  18 :    0.65;  19 :    3.25;  20 :    1.30;
  21 :    3.25;  22 :    0.65;  23 :    0.65;  24 :    0.00;  25 :    1.30;
  26 :    1.30;  27 :    1.30;  28 :    8.45;  29 :    3.90;  30 :    5.20;
  31 :    5.85;  32 :   14.95;  33 :    3.90;  34 :    4.55;  35 :    1.95;
  36 :    1.30;  37 :    1.95;

Origin 25
   1 :   10.40;   2 :    3.90;   3 :   22.10;   4 :   14.30;   5 :   76.05;
   6 :    2.60;   7 :    0.65;   8 :    0.65;   9 :    1.30;  10 :    0.65;
  11 :    1.95;  12 :    1.95;  13 :    3.90;  14 :    0.65;  15 :    7.80;
  16 :    0.65;  17 :    1.30;  18 :    0.65;  19 :    1.30;  20 :    3.90;
  21 :    1.30;  22 :    1.30;  23 :    1.95;  24 :    0.65;  25 :    0.00;
  26 :    0.65;  27 :    0.65;  28 :    3.25;  29 :    1.30;  30 :    3.25;
  31 :    2.60;  32 :    4.55;  33 :    1.95;  34 :    0.65;  35 :    0.65;
  36 :    3.25;  37 :    4.55;

Origin 26
   1 :    5.85;   2 :    2.60;   3 :    2.60;   4 :    1.95;   5 :    1.30;
   6 :    5.20;   7 :    0.65;   8 :    0.65;   9 :    1.30;  10 :    0.65;
  11 :    1.95;  12 :    1.95;  13 :    1.95;  14 :    0.65;  15 :    1.95;
  16 :    0.00;  17 :    1.30;  18 :    0.65;  19 :    1.30;  20 :    0.65;
  21 :    3.25;  22 :    0.00;  23 :    0.00;  24 :    0.65;  25 :    0.00;
  26 :    0.00;  27 :    0.65;  28 :    3.90;  29 :    1.95;  30 :    1.95;
  31 :    2.60;  32 :    5.20;  33 :    1.30;  34 :    1.30;  35 :    0.65;
  36 :    0.65;  37 :    0.65;

Origin 27
   1 :    7.80;   2 :    3.25;   3 :    2.60;   4 :    1.30;   5 :    1.30;
   6 :    3.25;   7 :    0.65;   8 :    0.65;   9 :    1.30;  10 :    0.65;
  11 :    2.60;  12 :    2.60;  13 :    1.95;  14 :    0.65;  15 :    1.95;
  16 :    0.00;  17 :    1.30;  18 :    0.65;  19 :   14.30;  20 :    0.65;
  21 :    1.95;  22 :    0.00;  23 :    0.00;  24 :    0.65;  25 :    0.00;
  26 :    0.65;  27 :    0.00;  28 :    5.20;  29 :    2.60;  30 :    2.60;
  31 :    3.25;  32 :    7.15;  33 :    1.95;  34 :    1.30;  35 :    0.65;
  36 :    0.65;  37 :    0.65;

Origin 28
   1 :   31.20;   2 :   13.00;   3 :   11.70;   4 :    7.15;   5 :    6.50;
   6 :   13.65;   7 :    2.60;   8 :    1.95;   9 :    4.55;  10 :    1.95;
  11 :   11.05;  12 :    9.75;  13 :    8.45;  14 :    3.90;  15 :    8.45;
  16 :    0.65;  17 :    5.20;  18 :    1.95;  19 :    8.45;  20 :    1.95;
  21 :    7.80;  22 :    0.65;  23 :    1.30;  24 :    3.25;  25 :    1.30;
  26 :    2.60;  27 :    3.25;  28 :    0.00;  29 :    9.75;  30 :   10.40;
  31 :   14.30;  32 :   30.55;  33 :    8.45;  34 :    5.85;  35 :    3.25;
  36 :    1.30;  37 :    2.60;

Origin 29
   1 :   29.90;   2 :   12.35;   3 :   12.35;   4 :    7.80;   5 :    7.15;
   6 :   14.95;   7 :    2.60;   8 :    1.95;   9 :    4.55;  10 :    1.95;
  11 :   11.70;  12 :   10.40;  13 :    9.10;  14 :    3.25;  15 :    9.10;
  16 :    0.65;  17 :    5.20;  18 :    1.95;  19 :    9.10;  20 :    1.95;
  21 :    8.45;  22 :    0.65;  23 :    1.30;  24 :    3.25;  25 :    1.30;
  26 :    2.60;  27 :    3.25;  28 :   20.80;  29 :    0.00;  30 :   11.70;
  31 :   14.95;  32 :   29.25;  33 :    8.45;  34 :    5.85;  35 :    3.25;
  36 :    1.30;  37 :    2.60;

Origin 30
   1 :   35.75;   2 :   14.95;   3 :   25.35;   4 :   15.60;   5 :   14.95;
   6 :   17.55;   7 :    3.25;   8 :    2.60;   9 :    9.10;  10 :    3.90;
  11 :   16.25;  12 :   16.25;  13 :   18.85;  14 :    3.90;  15 :   18.20;
  16 :    0.65;  17 :    6.50;  18 :    1.95;  19 :    8.45;  20 :    4.55;
  21 :   10.40;  22 :    1.30;  23 :    2.60;  24 :    3.25;  25 :    3.25;
  26 :    3.25;  27 :    3.25;  28 :   22.75;  29 :   11.70;  30 :    0.00;
  31 :   21.45;  32 :   33.80;  33 :   12.35;  34 :    6.50;  35 :    3.25;
  36 :    3.25;  37 :    5.20;

Origin 31
   1 :   37.05;   2 :   15.60;   3 :   18.20;   4 :   11.05;   5 :   10.40;
   6 :   18.85;   7 :    3.25;   8 :    2.60;   9 :    6.50;  10 :    2.60;
  11 :   15.60;  12 :   14.30;  13 :   14.30;  14 :    4.55;  15 :   13.00;
  16 :    0.65;  17 :    6.50;  18 :    2.60;  19 :    9.10;  20 :    3.25;
  21 :   11.05;  22 :    0.65;  23 :    1.95;  24 :    3.90;  25 :    1.95;
  26 :    3.25;  27 :    3.25;  28 :   24.05;  29 :   12.35;  30 :   16.90;
  31 :    0.00;  32 :   35.75;  33 :   13.00;  34 :    7.15;  35 :    3.90;
  36 :    2.60;  37 :    3.90;

Origin 32
   1 :   31.85;   2 :   13.65;   3 :    9.75;   4 :    5.85;   5 :    5.85;
   6 :   11.70;   7 :    2.60;   8 :    1.95;   9 :    3.25;  10 :    1.30;
  11 :   11.05;  12 :    9.10;  13 :    7.80;  14 :    3.90;  15 :    7.15;
  16 :    0.65;  17 :    5.85;  18 :    1.30;  19 :    6.50;  20 :    1.95;
  21 :    6.50;  22 :    0.65;  23 :    0.65;  24 :    3.25;  25 :    1.30;
  26 :    1.95;  27 :    2.60;  28 :   17.55;  29 :    7.80;  30 :    9.10;
  31 :   11.70;  32 :    0.00;  33 :    7.80;  34 :    6.50;  35 :    3.25;
  36 :    1.30;  37 :    1.95;

Origin 33
   1 :   35.75;   2 :   14.95;   3 :   16.25;   4 :    9.75;   5 :    9.10;
   6 :   15.60;   7 :    3.25;   8 :    2.60;   9 :    5.85;  10 :    2.60;
  11 :   15.60;  12 :   15.60;  13 :   14.95;  14 :    3.90;  15 :   11.05;
  16 :    0.65;  17 :    6.50;  18 :    1.95;  19 :    7.80;  20 :    2.60;
  21 :    9.10;  22 :    0.65;  23 :    1.30;  24 :    3.90;  25 :    1.95;
  26 :    2.60;  27 :    3.25;  28 :   21.45;  29 :   10.40;  30 :   14.30;
  31 :   18.85;  32 :   33.80;  33 :    0.00;  34 :    7.15;  35 :    3.25;
  36 :    1.95;  37 :    3.25;

Origin 34
   1 :   74.10;   2 :   31.20;   3 :   16.25;   4 :    9.75;   5 :    9.10;
   6 :   18.20;   7 :    6.50;   8 :    5.20;   9 :    5.85;  10 :    2.60;
  11 :   25.35;  12 :   18.85;  13 :   14.95;  14 :    9.10;  15 :   11.05;
  16 :    0.65;  17 :   13.00;  18 :    1.95;  19 :   11.05;  20 :    2.60;
  21 :   10.40;  22 :    0.65;  23 :    1.30;  24 :    7.15;  25 :    1.95;
  26 :    3.25;  27 :    3.90;  28 :   27.95;  29 :   13.00;  30 :   14.30;
  31 :   18.85;  32 :   49.40;  33 :   12.35;  34 :    0.00;  35 :    6.50;
  36 :    1.95;  37 :    3.25;

Origin 35
   1 :   16.90;   2 :    7.15;   3 :    3.90;   4 :    2.60;   5 :    1.95;
   6 :    4.55;   7 :    1.30;   8 :    1.30;   9 :    1.30;  10 :    0.65;
  11 :    5.20;  12 :    3.90;  13 :    3.25;  14 :    1.95;  15 :    2.60;
  16 :    0.00;  17 :    3.25;  18 :    0.65;  19 :    2.60;  20 :    0.65;
  21 :    2.60;  22 :    0.00;  23 :    0.65;  24 :    1.95;  25 :    0.65;
  26 :    0.65;  27 :    1.30;  28 :    7.15;  29 :    3.25;  30 :    3.90;
  31 :    4.55;  32 :   12.35;  33 :    3.25;  34 :    3.25;  35 :    0.00;
  36 :    0.65;  37 :    0.65;

Origin 36
   1 :   13.65;   2 :    5.20;   3 :   28.60;   4 :   18.20;   5 :   20.80;
   6 :    3.90;   7 :    1.30;   8 :    1.30;   9 :    1.95;  10 :    1.30;
  11 :    3.25;  12 :    2.60;  13 :    5.20;  14 :    1.30;  15 :   10.40;
  16 :    1.30;  17 :    1.95;  18 :    0.65;  19 :    1.30;  20 :    4.55;
  21 :    1.95;  22 :    1.30;  23 :    2.60;  24 :    1.30;  25 :    4.55;
  26 :    0.65;  27 :    0.65;  28 :    3.90;  29 :    1.95;  30 :    4.55;
  31 :    3.90;  32 :    5.85;  33 :    1.95;  34 :    1.30;  35 :    0.65;
  36 :    0.00;  37 :    5.85;

Origin 37
   1 :   26.65;   2 :    9.75;   3 :   72.15;   4 :   61.75;   5 :   37.05;
   6 :    7.15;   7 :    1.95;   8 :    1.95;   9 :    3.90;  10 :    1.95;
  11 :    5.85;  12 :    5.85;  13 :    9.75;  14 :    1.95;  15 :   20.15;
  16 :    1.95;  17 :    3.90;  18 :    0.65;  19 :    3.25;  20 :   12.35;
  21 :    3.90;  22 :    4.55;  23 :    9.10;  24 :    2.60;  25 :    7.15;
  26 :    1.30;  27 :    1.30;  28 :    7.80;  29 :    3.90;  30 :    8.45;
  31 :    7.15;  32 :   11.70;  33 :    4.55;  34 :    2.60;  35 :    1.30;
  36 :    7.80;  37 :    0.00;