<NUMBER OF ZONES> 37
<NUMBER OF NODES> 1298
<FIRST THRU NODE> 1
<NUMBER OF LINKS> 3312
<END OF METADATA> 

~	 Init node 	 Term node 	 Capacity 	 Length 	 Free Flow Time 	 B 	 Power 	 Speed limit 	 Toll 	 Link Type 	
	1	1	1000	3.75	0.08333333333333333	0.15	4	45	0	8	;
	1	1122	10000	0.0	0.0	0.15	4	500	0	9	;
	1	316	10000	0.0	0.0	0.15	4	500	0	9	;
	2	2	1000	3.75	0.08333333333333333	0.15	4	45	0	8	;
	2	1290	10000	0.0	0.0	0.15	4	500	0	9	;
	3	488	10000	0.0	0.0	0.15	4	500	0	9	;
	3	3	1000	3.75	0.08333333333333333	0.15	4	45	0	8	;
	4	4	1000	3.75	0.08333333333333333	0.15	4	45	0	8	;
	4	949	10000	0.0	0.0	0.15	4	500	0	9	;
	5	5	1000	3.75	0.08333333333333333	0.15	4	45	0	8	;
	5	253	10000	0.0	0.0	0.15	4	500	0	9	;
	6	6	1000	3.75	0.08333333333333333	0.15	4	45	0	8	;
	6	71	10000	0.0	0.0	0.15	4	500	0	9	;
	7	631	10000	0.0	0.0	0.15	4	500	0	9	;
	7	7	1000	3.75	0.08333333333333333	0.15	4	45	0	8	;
	8	8	1000	3.75	0.08333333333333333	0.15	4	45	0	8	;
	8	980	10000	0.0	0.0	0.15	4	500	0	9	;
	9	9	1000	3.75	0.08333333333333333	0.15	4	45	0	8	;
	9	1195	10000	0.0	0.0	0.15	4	500	0	9	;
	10	496	10000	0.0	0.0	0.15	4	500	0	9	;
	10	10	1000	3.75	0.08333333333333333	0.15	4	45	0	8	;
	11	11	1000	3.75	0.08333333333333333	0.15	4	45	0	8	;
	11	860	10000	0.0	0.0	0.15	4	500	0	9	;
	12	668	10000	0.0	0.0	0.15	4	500	0	9	;
	12	12	1000	3.75	0.08333333333333333	0.15	4	45	0	8	;
	13	987	10000	0.0	0.0	0.15	4	500	0	9	;
	13	13	1000	3.75	0.08333333333333333	0.15	4	45	0	8	;
	14	331	10000	0.0	0.0	0.15	4	500	0	9	;
	14	14	1000	3.75	0.08333333333333333	0.15	4	45	0	8	;
	15	1064	10000	0.0	0.0	0.15	4	500	0	9	;
	15	15	1000	3.75	0.08333333333333333	0.15	4	45	0	8	;
	16	16	1000	3.75	0.08333333333333333	0.15	4	45	0	8	;
	16	911	10000	0.0	0.0	0.15	4	500	0	9	;
	17	17	1000	3.75	0.08333333333333333	0.15	4	45	0	8	;
	17	1227	10000	0.0	0.0	0.15	4	500	0	9	;
	18	18	1000	3.75	0.08333333333333333	0.15	4	45	0	8	;
	18	899	10000	0.0	0.0	0.15	4	500	0	9	;
	19	19	1000	3.75	0.08333333333333333	0.15	4	45	0	8	;
	19	38	10000	0.0	0.0	0.15	4	500	0	9	;
	20	20	1000	3.75	0.08333333333333333	0.15	4	45	0	8	;
	20	1062	10000	0.0	0.0	0.15	4	500	0	9	;
	21	608	10000	0.0	0.0	0.15	4	500	0	9	;
	21	21	1000	3.75	0.08333333333333333	0.15	4	45	0	8	;
	22	389	10000	0.0	0.0	0.15	4	500	0	9	;
	22	22	1000	3.75	0.08333333333333333	0.15	4	45	0	8	;
	23	597	10000	0.0	0.0	0.15	4	500	0	9	;
	23	23	1000	3.75	0.08333333333333333	0.15	4	45	0	8	;
	24	24	1000	3.75	0.08333333333333333	0.15	4	45	0	8	;
	24	817	10000	0.0	0.0	0.15	4	500	0	9	;
	25	25	1000	3.75	0.08333333333333333	0.15	4	45	0	8	;
	25	841	10000	0.0	0.0	0.15	4	500	0	9	;
	26	26	1000	3.75	0.08333333333333333	0.15	4	45	0	8	;
	26	1085	10000	0.0	0.0	0.15	4	500	0	9	;
	27	27	1000	3.75	0.08333333333333333	0.15	4	45	0	8	;
	27	933	10000	0.0	0.0	0.15	4	500	0	9	;
	28	952	10000	0.0	0.0	0.15	4	500	0	9	;
	28	28	1000	3.75	0.08333333333333333	0.15	4	45	0	8	;
	29	29	1000	3.75	0.08333333333333333	0.15	4	45	0	8	;
	29	317	10000	0.0	0.0	0.15	4	500	0	9	;
	30	1000	10000	0.0	0.0	0.15	4	500	0	9	;
	30	30	1000	3.75	0.08333333333333333	0.15	4	45	0	8	;
	31	419	10000	0.0	0.0	0.15	4	500	0	9	;
	31	31	1000	3.75	0.08333333333333333	0.15	4	45	0	8	;
	32	32	1000	3.75	0.08333333333333333	0.15	4	45	0	8	;
	32	1092	10000	0.0	0.0	0.15	4	500	0	9	;
	33	33	1000	3.75	0.08333333333333333	0.15	4	45	0	8	;
	33	891	10000	0.0	0.0	0.15	4	500	0	9	;
	34	34	1000	3.75	0.08333333333333333	0.15	4	45	0	8	;
	34	170	10000	0.0	0.0	0.15	4	500	0	9	;
	35	1184	10000	0.0	0.0	0.15	4	500	0	9	;
	35	35	1000	3.75	0.08333333333333333	0.15	4	45	0	8	;
	36	204	10000	0.0	0.0	0.15	4	500	0	9	;
	36	36	1000	3.75	0.08333333333333333	0.15	4	45	0	8	;
	37	37	1000	3.75	0.08333333333333333	0.15	4	45	0	8	;
	37	225	850	0.10851999999999999	0.003617333333333333	0.15	4	30	0	0	;
	37	526	850	0.23397	0.007799	0.15	4	30	0	0	;
	37	846	10000	0.0	0.0	0.15	4	500	0	9	;
	37	965	850	0.24536000000000002	0.008178666666666667	0.15	4	30	0	0	;
	38	392	600	2.66638	0.0533276	0.15	4	50	0	0	;
	38	19	10000	0.0	0.0	0.15	4	500	0	0	;
	39	113	900	0.2508	0.003135	0.15	4	80	0	0	;
	39	140	900	0.03083	0.000385375	0.15	4	80	0	0	;
	40	422	1200	0.49895999999999996	0.004157999999999999	0.15	4	120	0	1	;
	41	915	900	2.53972	0.0317465	0.15	4	80	0	0	;
	41	237	900	1.67811	0.020976375	0.15	4	80	0	0	;
	42	895	850	0.04185	0.001395	0.15	4	30	0	0	;
	42	54	850	0.056060000000000006	0.001868666666666667	0.15	4	30	0	0	;
	42	863	600	0.15835	0.005278333333333333	0.15	4	30	0	0	;
	43	866	600	0.00842	0.0001684	0.15	4	50	0	0	;
	43	487	600	5.0490699999999995	0.10098139999999999	0.15	4	50	0	0	;
	44	1234	900	0.12422	0.0024844	0.15	4	50	0	0	;
	44	596	900	0.03344	0.0006688	0.15	4	50	0	0	;
	44	934	900	0.14186	0.0028372000000000002	0.15	4	50	0	0	;
	44	408	900	0.17351	0.0034702	0.15	4	50	0	0	;
	45	665	900	0.13374	0.0026747999999999997	0.15	4	50	0	0	;
	45	347	900	0.0233	0.00046600000000000005	0.15	4	50	0	0	;
	46	596	900	0.06695999999999999	0.0013391999999999998	0.15	4	50	0	0	;
	46	989	900	0.02471	0.0004942	0.15	4	50	0	0	;
	47	1166	900	0.43006	0.00537575	0.15	4	80	0	0	;
	47	1255	900	2.00816	0.025102000000000003	0.15	4	80	0	0	;
	48	513	900	0.03939	0.0007878000000000001	0.15	4	50	0	0	;
	48	122	900	0.30656	0.0061312	0.15	4	50	0	0	;
	49	595	1200	0.50629	0.0101258	0.15	4	50	0	0	;
	49	675	1200	0.08120000000000001	0.0016240000000000002	0.15	4	50	0	0	;
	50	536	850	0.0193	0.0006433333333333333	0.15	4	30	0	0	;
	50	921	850	0.0246	0.00082	0.15	4	30	0	0	;
	50	374	850	0.037509999999999995	0.0012503333333333331	0.15	4	30	0	0	;
	51	579	600	1.21986	0.024397199999999997	0.15	4	50	0	0	;
	51	837	900	0.48235	0.006029375	0.15	4	80	0	0	;
	51	391	900	0.39536	0.004942	0.15	4	80	0	0	;
	52	615	850	0.09629	0.0032096666666666667	0.15	4	30	0	0	;
	52	695	850	0.15335	0.005111666666666666	0.15	4	30	0	0	;
	53	626	850	0.20815999999999998	0.006938666666666666	0.15	4	30	0	0	;
	53	1149	850	0.05971	0.001990333333333333	0.15	4	30	0	0	;
	54	895	850	0.19635	0.006545	0.15	4	30	0	0	;
	54	42	850	0.056060000000000006	0.001868666666666667	0.15	4	30	0	0	;
	54	863	850	0.05318	0.0017726666666666665	0.15	4	30	0	0	;
	55	450	850	0.0269	0.0008966666666666667	0.15	4	30	0	0	;
	55	1291	850	0.01688	0.0005626666666666666	0.15	4	30	0	0	;
	55	301	850	0.07479000000000001	0.0024930000000000004	0.15	4	30	0	0	;
	55	1237	850	0.01662	0.000554	0.15	4	30	0	0	;
	56	1128	1200	0.0046500000000000005	9.300000000000001e-05	0.15	4	50	0	0	;
	56	117	1200	0.07495	0.0014990000000000001	0.15	4	50	0	0	;
	56	511	850	0.05614	0.0018713333333333334	0.15	4	30	0	0	;
	57	1227	600	0.16097	0.005365666666666667	0.15	4	30	0	0	;
	57	1118	600	0.48185	0.016061666666666665	0.15	4	30	0	0	;
	58	65	1200	0.49085	0.0049085	0.15	4	100	0	0	;
	58	708	600	0.10754000000000001	0.003584666666666667	0.15	4	30	0	0	;
	58	559	1200	0.43874	0.0043874000000000005	0.15	4	100	0	0	;
	59	892	900	0.9249400000000001	0.018498800000000003	0.15	4	50	0	0	;
	59	915	900	0.0461	0.00057625	0.15	4	80	0	0	;
	60	1131	255	0.6900499999999999	0.023001666666666663	0.15	4	30	0	0	;
	60	534	850	0.32572	0.010857333333333333	0.15	4	30	0	0	;
	60	1231	600	0.09401000000000001	0.0018802000000000003	0.15	4	50	0	0	;
	61	800	850	0.12464	0.004154666666666667	0.15	4	30	0	0	;
	61	824	850	0.24541	0.008180333333333333	0.15	4	30	0	0	;
	61	379	850	0.37563	0.012521000000000001	0.15	4	30	0	0	;
	62	1280	850	0.03706	0.0012353333333333335	0.15	4	30	0	0	;
	62	839	850	0.053009999999999995	0.001767	0.15	4	30	0	0	;
	62	490	850	0.09869	0.003289666666666667	0.15	4	30	0	0	;
	63	81	1200	0.0438	0.0008759999999999999	0.15	4	50	0	0	;
	63	692	1200	0.01534	0.0003068	0.15	4	50	0	0	;
	63	1292	1200	0.01758	0.0003516	0.15	4	50	0	0	;
	64	849	850	0.41469	0.013823	0.15	4	30	0	0	;
	64	349	850	0.11262	0.003754	0.15	4	30	0	0	;
	66	637	900	0.08726	0.0017452000000000001	0.15	4	50	0	0	;
	66	806	1200	0.18636000000000003	0.0037272000000000004	0.15	4	50	0	0	;
	66	143	1200	0.15258000000000002	0.0015258000000000001	0.15	4	100	0	0	;
	67	1067	900	0.10571	0.0021142	0.15	4	50	0	0	;
	67	116	850	0.11462	0.0038206666666666667	0.15	4	30	0	0	;
	67	1055	900	0.11629	0.0023258000000000003	0.15	4	50	0	0	;
	68	1088	600	0.19169999999999998	0.006389999999999999	0.15	4	30	0	0	;
	68	1195	600	0.02453	0.0008176666666666666	0.15	4	30	0	0	;
	68	196	850	0.3865	0.012883333333333333	0.15	4	30	0	0	;
	69	708	600	0.13747	0.004582333333333333	0.15	4	30	0	0	;
	69	85	600	0.18293	0.006097666666666667	0.15	4	30	0	0	;
	69	559	600	0.26903	0.008967666666666667	0.15	4	30	0	0	;
	70	452	4000	0.31264	0.002605333333333333	0.15	4	120	0	1	;
	71	1174	1200	0.80112	0.008011200000000001	0.15	4	100	0	0	;
	71	6	10000	0.0	0.0	0.15	4	500	0	0	;
	72	1139	850	0.09381	0.003127	0.15	4	30	0	0	;
	72	683	850	0.1635	0.00545	0.15	4	30	0	0	;
	72	309	255	0.2021	0.006736666666666667	0.15	4	30	0	0	;
	73	514	1200	0.0882	0.001764	0.15	4	50	0	0	;
	73	163	1200	0.07117	0.0014234	0.15	4	50	0	0	;
	73	1140	850	0.13647	0.004549	0.15	4	30	0	0	;
	74	1094	4000	0.40648	0.0033873333333333333	0.15	4	120	0	1	;
	75	292	900	1.04756	0.0130945	0.15	4	80	0	0	;
	75	733	600	0.55821	0.011164199999999999	0.15	4	50	0	0	;
	75	173	900	0.23645	0.002955625	0.15	4	80	0	0	;
	76	395	4000	0.05865	0.00048875	0.15	4	120	0	1	;
	77	1177	850	0.20689	0.006896333333333333	0.15	4	30	0	0	;
	77	1142	850	0.06664	0.0022213333333333334	0.15	4	30	0	0	;
	77	271	850	0.02041	0.0006803333333333334	0.15	4	30	0	0	;
	78	288	850	0.08729	0.0029096666666666667	0.15	4	30	0	0	;
	78	625	900	0.11031	0.0022062	0.15	4	50	0	0	;
	78	1010	900	0.01081	0.0002162	0.15	4	50	0	0	;
	79	609	850	0.18774000000000002	0.0062580000000000005	0.15	4	30	0	0	;
	79	603	850	0.12504	0.004168000000000001	0.15	4	30	0	0	;
	79	803	850	0.09681000000000001	0.0032270000000000003	0.15	4	30	0	0	;
	80	860	850	0.07845	0.002615	0.15	4	30	0	0	;
	80	318	850	0.2305	0.007683333333333334	0.15	4	30	0	0	;
	80	862	850	0.19449	0.006483	0.15	4	30	0	0	;
	81	275	600	0.14234	0.004744666666666666	0.15	4	30	0	0	;
	81	1221	1200	0.41255000000000003	0.008251000000000001	0.15	4	50	0	0	;
	81	63	1200	0.0438	0.0008759999999999999	0.15	4	50	0	0	;
	82	1164	900	0.77454	0.00968175	0.15	4	80	0	0	;
	82	671	600	3.12812	0.0625624	0.15	4	50	0	0	;
	83	562	850	1.01429	0.03380966666666666	0.15	4	30	0	0	;
	83	91	850	0.23409	0.007803	0.15	4	30	0	0	;
	84	274	900	0.01723	0.0003446	0.15	4	50	0	0	;
	84	307	900	0.02002	0.0004004	0.15	4	50	0	0	;
	84	989	900	0.09061	0.0018122	0.15	4	50	0	0	;
	85	689	600	1.11592	0.03719733333333333	0.15	4	30	0	0	;
	85	1138	600	0.08195000000000001	0.002731666666666667	0.15	4	30	0	0	;
	85	69	600	0.18293	0.006097666666666667	0.15	4	30	0	0	;
	86	1107	900	0.06749	0.0013498	0.15	4	50	0	0	;
	86	777	900	0.0851	0.001702	0.15	4	50	0	0	;
	86	269	850	0.04814	0.0016046666666666668	0.15	4	30	0	0	;
	87	658	850	0.06301	0.0021003333333333334	0.15	4	30	0	0	;
	87	1283	850	0.18928	0.0063093333333333335	0.15	4	30	0	0	;
	87	631	850	0.08635	0.002878333333333333	0.15	4	30	0	0	;
	88	408	900	0.03587	0.0007174	0.15	4	50	0	0	;
	88	371	900	0.07656	0.0015312000000000001	0.15	4	50	0	0	;
	90	680	600	0.01083	0.000361	0.15	4	30	0	0	;
	90	651	850	0.11959	0.003986333333333333	0.15	4	30	0	0	;
	92	606	850	0.20385	0.006795	0.15	4	30	0	0	;
	92	989	850	0.10141	0.0033803333333333333	0.15	4	30	0	0	;
	92	974	850	0.2709	0.00903	0.15	4	30	0	0	;
	92	735	850	0.12065000000000001	0.004021666666666667	0.15	4	30	0	0	;
	93	1189	850	0.00937	0.00031233333333333335	0.15	4	30	0	0	;
	93	594	850	0.13357	0.004452333333333333	0.15	4	30	0	0	;
	93	325	600	0.21330000000000002	0.007110000000000001	0.15	4	30	0	0	;
	94	104	4000	0.05324	0.0004436666666666667	0.15	4	120	0	1	;
	95	1193	900	0.17693	0.0035386000000000003	0.15	4	50	0	0	;
	95	853	900	0.05034	0.00062925	0.15	4	80	0	0	;
	96	723	1200	0.01779	0.00017790000000000001	0.15	4	100	0	0	;
	96	295	1200	0.42686	0.0042686	0.15	4	100	0	0	;
	97	1065	900	0.38523	0.004815375	0.15	4	80	0	0	;
	97	1028	900	0.25397	0.0031746249999999995	0.15	4	80	0	0	;
	98	474	900	0.02123	0.00042459999999999997	0.15	4	50	0	0	;
	98	1083	1200	0.14358	0.0028716	0.15	4	50	0	0	;
	99	448	900	0.09364	0.0011705	0.15	4	80	0	0	;
	99	1017	900	0.0255	0.00031874999999999997	0.15	4	80	0	0	;
	99	259	850	0.12589	0.004196333333333333	0.15	4	30	0	0	;
	100	464	4000	0.052520000000000004	0.0004376666666666667	0.15	4	120	0	0	;
	100	861	4000	0.0172	0.00014333333333333334	0.15	4	120	0	0	;
	101	115	850	0.17878	0.005959333333333333	0.15	4	30	0	0	;
	101	643	900	0.03673	0.0007346	0.15	4	50	0	0	;
	101	154	900	0.1525	0.0030499999999999998	0.15	4	50	0	0	;
	102	482	1200	0.02775	0.000555	0.15	4	50	0	0	;
	102	1188	600	0.14697	0.004899	0.15	4	30	0	0	;
	102	1003	1200	0.04952	0.0009904	0.15	4	50	0	0	;
	103	1205	1200	0.030010000000000002	0.00030010000000000003	0.15	4	100	0	0	;
	103	599	1200	0.02588	0.0005176	0.15	4	50	0	0	;
	104	201	4000	0.23696	0.0019746666666666667	0.15	4	120	0	1	;
	105	721	600	0.43172000000000005	0.014390666666666668	0.15	4	30	0	0	;
	105	1270	900	0.18588	0.0037175999999999997	0.15	4	50	0	0	;
	105	1127	900	0.5562699999999999	0.011125399999999999	0.15	4	50	0	0	;
	106	544	900	0.02884	0.0005768	0.15	4	50	0	0	;
	106	537	900	0.07514	0.0015027999999999999	0.15	4	50	0	0	;
	106	396	850	0.41731999999999997	0.013910666666666665	0.15	4	30	0	0	;
	107	1148	850	0.30252999999999997	0.010084333333333332	0.15	4	30	0	0	;
	107	646	850	0.15474000000000002	0.005158	0.15	4	30	0	0	;
	108	1028	900	0.50496	0.006312	0.15	4	80	0	0	;
	108	743	900	0.84654	0.01058175	0.15	4	80	0	0	;
	109	1258	850	0.12296	0.004098666666666666	0.15	4	30	0	0	;
	109	646	900	0.00417	8.340000000000001e-05	0.15	4	50	0	0	;
	109	383	900	0.00721	0.0001442	0.15	4	50	0	0	;
	110	920	900	0.17887999999999998	0.0035776	0.15	4	50	0	0	;
	110	793	900	0.046009999999999995	0.0009201999999999999	0.15	4	50	0	0	;
	110	1179	850	0.42724	0.014241333333333333	0.15	4	30	0	0	;
	111	924	900	0.09043000000000001	0.001130375	0.15	4	80	0	0	;
	111	748	900	0.1699	0.0021237499999999998	0.15	4	80	0	0	;
	112	163	1200	0.0242	0.000484	0.15	4	50	0	0	;
	112	584	1200	0.01303	0.0002606	0.15	4	50	0	0	;
	112	412	1200	0.09818	0.0019636000000000002	0.15	4	50	0	0	;
	113	837	900	0.05407	0.000675875	0.15	4	80	0	0	;
	113	39	900	0.2508	0.003135	0.15	4	80	0	0	;
	114	433	900	0.15134999999999998	0.001891875	0.15	4	80	0	0	;
	114	533	900	0.37189999999999995	0.007437999999999999	0.15	4	50	0	0	;
	114	987	900	0.39061	0.0078122	0.15	4	50	0	0	;
	115	584	900	0.05199	0.0010398	0.15	4	50	0	0	;
	115	101	850	0.17878	0.005959333333333333	0.15	4	30	0	0	;
	115	191	850	0.12745	0.004248333333333334	0.15	4	30	0	0	;
	116	568	900	0.06876	0.0013752	0.15	4	50	0	0	;
	116	67	850	0.11462	0.0038206666666666667	0.15	4	30	0	0	;
	116	381	900	0.11026999999999999	0.0022053999999999997	0.15	4	50	0	0	;
	117	489	900	0.15111000000000002	0.0030222000000000005	0.15	4	50	0	0	;
	117	854	1200	0.10696	0.0021392	0.15	4	50	0	0	;
	117	56	1200	0.07495	0.0014990000000000001	0.15	4	50	0	0	;
	118	808	850	0.44549	0.014849666666666667	0.15	4	30	0	0	;
	118	282	600	0.09298000000000001	0.0030993333333333337	0.15	4	30	0	0	;
	119	378	600	1.2400799999999998	0.024801599999999997	0.15	4	50	0	0	;
	119	486	600	0.76086	0.0152172	0.15	4	50	0	0	;
	120	305	850	0.3982	0.013273333333333333	0.15	4	30	0	0	;
	120	614	850	0.2521	0.008403333333333334	0.15	4	30	0	0	;
	120	1009	600	0.18719999999999998	0.006239999999999999	0.15	4	30	0	0	;
	121	1274	900	0.11081	0.0022162	0.15	4	50	0	0	;
	121	1262	850	0.16515000000000002	0.005505	0.15	4	30	0	0	;
	121	1117	900	0.01644	0.00032879999999999997	0.15	4	50	0	0	;
	122	48	900	0.30656	0.0061312	0.15	4	50	0	0	;
	122	779	1200	0.08189	0.0016378	0.15	4	50	0	0	;
	703	1016	900	0.06215	0.000776875	0.15	4	80	0	0	;
	703	1193	850	0.16801	0.005600333333333333	0.15	4	30	0	0	;
	703	273	900	0.28352	0.0056704	0.15	4	50	0	0	;
	124	1261	1200	0.01267	0.00025340000000000003	0.15	4	50	0	0	;
	124	981	1200	0.0324	0.0006479999999999999	0.15	4	50	0	0	;
	124	1021	850	0.18246	0.006082000000000001	0.15	4	30	0	0	;
	125	912	600	0.06726	0.0013452	0.15	4	50	0	0	;
	125	628	600	0.10556	0.0021112	0.15	4	50	0	0	;
	125	350	600	0.02471	0.0004942	0.15	4	50	0	0	;
	126	800	850	0.0757	0.0025233333333333336	0.15	4	30	0	0	;
	126	333	850	0.20662	0.006887333333333333	0.15	4	30	0	0	;
	126	1213	600	0.18553999999999998	0.0061846666666666664	0.15	4	30	0	0	;
	127	150	1200	0.28179000000000004	0.005635800000000001	0.15	4	50	0	0	;
	127	1175	1200	0.44251	0.0044251	0.15	4	100	0	0	;
	128	720	1200	0.01277	0.00025540000000000003	0.15	4	50	0	0	;
	128	698	900	0.03171	0.0006342	0.15	4	50	0	0	;
	128	268	1200	0.009949999999999999	0.00019899999999999999	0.15	4	50	0	0	;
	130	785	850	0.18738999999999997	0.006246333333333332	0.15	4	30	0	0	;
	130	333	850	0.31964	0.010654666666666666	0.15	4	30	0	0	;
	131	532	850	0.07937999999999999	0.002646	0.15	4	30	0	0	;
	131	961	850	0.56737	0.018912333333333333	0.15	4	30	0	0	;
	132	262	4000	0.054439999999999995	0.0004536666666666666	0.15	4	120	0	1	;
	133	1120	4000	1.70788	0.014232333333333335	0.15	4	120	0	1	;
	134	1033	850	0.01678	0.0005593333333333333	0.15	4	30	0	0	;
	134	398	850	0.07041	0.002347	0.15	4	30	0	0	;
	134	310	850	0.01277	0.0004256666666666667	0.15	4	30	0	0	;
	135	376	850	0.15563	0.005187666666666666	0.15	4	30	0	0	;
	135	1235	850	0.11320000000000001	0.003773333333333334	0.15	4	30	0	0	;
	135	746	850	0.05586	0.001862	0.15	4	30	0	0	;
	136	1199	900	0.20153000000000001	0.0040306000000000005	0.15	4	50	0	0	;
	136	471	900	0.019129999999999998	0.0003826	0.15	4	50	0	0	;
	137	872	850	0.03984	0.001328	0.15	4	30	0	0	;
	137	578	850	0.04102	0.0013673333333333335	0.15	4	30	0	0	;
	137	241	850	0.0185	0.0006166666666666666	0.15	4	30	0	0	;
	138	1131	0	1.2177799999999999	0.024355599999999998	0.15	4	50	0	0	;
	139	1012	850	0.02468	0.0008226666666666666	0.15	4	30	0	0	;
	139	299	850	0.05323	0.0017743333333333333	0.15	4	30	0	0	;
	139	223	850	0.07118000000000001	0.002372666666666667	0.15	4	30	0	0	;
	140	1270	900	0.055009999999999996	0.0011002	0.15	4	50	0	0	;
	140	837	600	0.57884	0.0115768	0.15	4	50	0	0	;
	140	39	900	0.03083	0.000385375	0.15	4	80	0	0	;
	141	1208	1200	0.29075	0.005815	0.15	4	50	0	0	;
	141	1050	1200	0.03535	0.000707	0.15	4	50	0	0	;
	142	871	4000	0.39332	0.0032776666666666666	0.15	4	120	0	1	;
	143	66	1200	0.15258000000000002	0.0015258000000000001	0.15	4	100	0	0	;
	143	700	600	0.1278	0.001278	0.15	4	100	0	0	;
	144	393	850	0.038770000000000006	0.0012923333333333335	0.15	4	30	0	0	;
	144	638	850	0.26705	0.008901666666666667	0.15	4	30	0	0	;
	145	1298	850	0.0356	0.0011866666666666666	0.15	4	30	0	0	;
	145	1108	850	0.10191	0.003397	0.15	4	30	0	0	;
	145	1222	850	0.07403	0.0024676666666666666	0.15	4	30	0	0	;
	146	976	900	0.19211	0.002401375	0.15	4	80	0	0	;
	146	1048	850	0.13244999999999998	0.004415	0.15	4	30	0	0	;
	146	1269	900	0.61973	0.007746625	0.15	4	80	0	0	;
	707	918	900	0.9863999999999999	0.012329999999999999	0.15	4	80	0	0	;
	707	1255	900	0.31104000000000004	0.0038880000000000004	0.15	4	80	0	0	;
	148	1093	1200	0.05077	0.0010154	0.15	4	50	0	0	;
	148	599	1200	0.022879999999999998	0.00045759999999999996	0.15	4	50	0	0	;
	149	640	4000	0.019350000000000003	0.00016125000000000002	0.15	4	120	0	1	;
	150	297	850	0.22598	0.007532666666666666	0.15	4	30	0	0	;
	150	582	1200	0.07695	0.001539	0.15	4	50	0	0	;
	150	127	1200	0.28179000000000004	0.005635800000000001	0.15	4	50	0	0	;
	151	968	4000	1.01304	0.008442	0.15	4	120	0	0	;
	151	147	4000	0.25404	0.002117	0.15	4	120	0	0	;
	152	1012	850	0.045200000000000004	0.0015066666666666668	0.15	4	30	0	0	;
	152	634	900	0.06885	0.001377	0.15	4	50	0	0	;
	152	1229	850	0.05224	0.0017413333333333334	0.15	4	30	0	0	;
	153	897	850	0.06625	0.0022083333333333334	0.15	4	30	0	0	;
	153	980	900	0.10167	0.0020334	0.15	4	50	0	0	;
	153	301	900	0.01056	0.0002112	0.15	4	50	0	0	;
	154	412	1200	0.0175	0.00035000000000000005	0.15	4	50	0	0	;
	154	684	1200	0.01034	0.0002068	0.15	4	50	0	0	;
	154	101	900	0.1525	0.0030499999999999998	0.15	4	50	0	0	;
	155	1203	850	0.19412000000000001	0.006470666666666667	0.15	4	30	0	0	;
	155	1049	850	0.31565	0.010521666666666667	0.15	4	30	0	0	;
	155	430	850	0.20396	0.006798666666666666	0.15	4	30	0	0	;
	156	1024	900	0.17356	0.0034712	0.15	4	50	0	0	;
	156	674	900	0.06799	0.0013598	0.15	4	50	0	0	;
	156	818	850	0.13701	0.004567	0.15	4	30	0	0	;
	157	232	850	0.05054	0.0016846666666666668	0.15	4	30	0	0	;
	157	642	850	0.17927	0.005975666666666667	0.15	4	30	0	0	;
	157	271	850	0.03505	0.0011683333333333333	0.15	4	30	0	0	;
	158	163	1200	0.010060000000000001	0.0002012	0.15	4	50	0	0	;
	158	454	850	0.08766	0.002922	0.15	4	30	0	0	;
	158	584	1200	0.00725	0.000145	0.15	4	50	0	0	;
	159	1089	900	0.00509	0.0001018	0.15	4	50	0	0	;
	159	922	900	0.13388999999999998	0.0026777999999999997	0.15	4	50	0	0	;
	159	458	900	0.00478	9.56e-05	0.15	4	50	0	0	;
	160	914	850	0.11370000000000001	0.0037900000000000004	0.15	4	30	0	0	;
	160	549	850	0.00422	0.00014066666666666665	0.15	4	30	0	0	;
	161	625	900	0.056600000000000004	0.0011320000000000002	0.15	4	50	0	0	;
	161	717	850	0.060969999999999996	0.002032333333333333	0.15	4	30	0	0	;
	161	455	900	0.05166	0.0010332	0.15	4	50	0	0	;
	162	516	850	0.1358	0.004526666666666667	0.15	4	30	0	0	;
	162	1116	850	0.03791	0.0012636666666666666	0.15	4	30	0	0	;
	163	112	1200	0.0242	0.000484	0.15	4	50	0	0	;
	163	73	1200	0.07117	0.0014234	0.15	4	50	0	0	;
	163	158	1200	0.010060000000000001	0.0002012	0.15	4	50	0	0	;
	164	1035	900	0.28789	0.003598625	0.15	4	80	0	0	;
	164	231	900	0.14511000000000002	0.0018138750000000002	0.15	4	80	0	0	;
	710	453	850	0.08854000000000001	0.0029513333333333336	0.15	4	30	0	0	;
	710	343	850	0.1095	0.00365	0.15	4	30	0	0	;
	166	1171	4000	0.6905	0.005754166666666667	0.15	4	120	0	0	;
	166	815	4000	0.0174	0.000145	0.15	4	120	0	0	;
	167	273	900	0.56177	0.007022125	0.15	4	80	0	0	;
	167	796	900	0.28889	0.0036111249999999998	0.15	4	80	0	0	;
	167	413	600	0.52319	0.0104638	0.15	4	50	0	0	;
	168	609	850	0.12493000000000001	0.004164333333333334	0.15	4	30	0	0	;
	168	603	850	0.02188	0.0007293333333333334	0.15	4	30	0	0	;
	169	505	1200	1.0328	0.010327999999999999	0.15	4	100	0	0	;
	169	570	1200	1.2929300000000001	0.012929300000000001	0.15	4	100	0	0	;
	170	657	850	0.11614000000000001	0.0038713333333333334	0.15	4	30	0	0	;
	170	931	850	0.12539	0.004179666666666667	0.15	4	30	0	0	;
	170	34	10000	0.0	0.0	0.15	4	500	0	0	;
	170	945	850	0.16405	0.005468333333333334	0.15	4	30	0	0	;
	171	688	1200	0.2465	0.00493	0.15	4	50	0	0	;
	171	1068	1200	0.023960000000000002	0.00047920000000000005	0.15	4	50	0	0	;
	172	1206	4000	0.0287	0.00023916666666666666	0.15	4	120	0	1	;
	173	1137	1200	0.47413	0.0047413	0.15	4	100	0	0	;
	173	75	900	0.23645	0.002955625	0.15	4	80	0	0	;
	173	348	850	0.08871	0.002957	0.15	4	30	0	0	;
	174	340	900	0.04761	0.0009521999999999999	0.15	4	50	0	0	;
	174	220	900	0.41258	0.0082516	0.15	4	50	0	0	;
	174	399	900	0.17986000000000002	0.0035972000000000005	0.15	4	50	0	0	;
	175	992	900	0.05268	0.0010536	0.15	4	50	0	0	;
	175	851	850	0.27848	0.009282666666666666	0.15	4	30	0	0	;
	175	185	900	0.20943	0.0041886	0.15	4	50	0	0	;
	176	776	850	0.052829999999999995	0.0017609999999999998	0.15	4	30	0	0	;
	176	1251	850	0.16756000000000001	0.005585333333333334	0.15	4	30	0	0	;
	176	660	850	0.32204	0.010734666666666667	0.15	4	30	0	0	;
	177	764	1200	0.12434999999999999	0.0024869999999999996	0.15	4	50	0	0	;
	177	222	1200	0.00877	0.0001754	0.15	4	50	0	0	;
	177	774	1200	0.0159	0.00031800000000000003	0.15	4	50	0	0	;
	178	992	900	0.14556	0.0029112	0.15	4	50	0	0	;
	178	1072	850	0.13057	0.004352333333333333	0.15	4	30	0	0	;
	178	621	900	0.13551	0.0027102	0.15	4	50	0	0	;
	179	615	850	0.16247999999999999	0.005416	0.15	4	30	0	0	;
	179	440	850	0.20419	0.0068063333333333335	0.15	4	30	0	0	;
	179	377	850	0.12362000000000001	0.004120666666666667	0.15	4	30	0	0	;
	180	511	850	0.2226	0.0074199999999999995	0.15	4	30	0	0	;
	180	1141	850	0.17595	0.0058649999999999996	0.15	4	30	0	0	;
	180	518	850	0.0146	0.00048666666666666666	0.15	4	30	0	0	;
	181	953	850	0.06199	0.0020663333333333337	0.15	4	30	0	0	;
	181	1021	850	0.08673	0.002891	0.15	4	30	0	0	;
	181	597	600	1.4865599999999999	0.049552	0.15	4	30	0	0	;
	182	932	850	0.20353	0.006784333333333333	0.15	4	30	0	0	;
	182	359	850	0.28834	0.009611333333333333	0.15	4	30	0	0	;
	182	1002	850	0.17536000000000002	0.0058453333333333335	0.15	4	30	0	0	;
	713	865	600	0.09255	0.0030849999999999996	0.15	4	30	0	0	;
	713	483	900	0.054490000000000004	0.0010898000000000001	0.15	4	50	0	0	;
	713	632	900	0.01231	0.0002462	0.15	4	50	0	0	;
	184	576	1200	0.21243	0.0042486	0.15	4	50	0	0	;
	184	644	1200	0.01396	0.0002792	0.15	4	50	0	0	;
	184	242	1200	0.00915	0.000183	0.15	4	50	0	0	;
	185	499	850	0.17253	0.005751	0.15	4	30	0	0	;
	185	966	900	0.13656000000000001	0.0027312000000000005	0.15	4	50	0	0	;
	185	175	900	0.20943	0.0041886	0.15	4	50	0	0	;
	186	281	850	0.0664	0.002213333333333333	0.15	4	30	0	0	;
	186	764	850	0.12456999999999999	0.0041523333333333325	0.15	4	30	0	0	;
	186	1279	850	0.17828	0.005942666666666666	0.15	4	30	0	0	;
	187	1218	4000	0.33914999999999995	0.0028262499999999998	0.15	4	120	0	1	;
	188	784	850	0.16777	0.005592333333333334	0.15	4	30	0	0	;
	188	1243	900	0.34264999999999995	0.006852999999999999	0.15	4	50	0	0	;
	188	644	900	0.29786	0.0059572	0.15	4	50	0	0	;
	714	232	900	0.12395	0.0024790000000000003	0.15	4	50	0	0	;
	714	355	850	0.07376	0.0024586666666666667	0.15	4	30	0	0	;
	714	1037	900	0.047909999999999994	0.0009581999999999999	0.15	4	50	0	0	;
	190	1184	850	0.19876	0.006625333333333333	0.15	4	30	0	0	;
	190	1132	850	0.12336	0.004112	0.15	4	30	0	0	;
	191	1153	850	0.24253	0.008084333333333334	0.15	4	30	0	0	;
	191	115	850	0.12745	0.004248333333333334	0.15	4	30	0	0	;
	191	454	850	0.06842000000000001	0.002280666666666667	0.15	4	30	0	0	;
	192	753	4000	0.04487	0.00037391666666666666	0.15	4	120	0	1	;
	193	205	900	0.1507	0.00188375	0.15	4	80	0	0	;
	193	807	900	0.6764600000000001	0.008455750000000001	0.15	4	80	0	0	;
	194	1043	850	0.18055000000000002	0.006018333333333334	0.15	4	30	0	0	;
	194	855	850	0.11733	0.003911	0.15	4	30	0	0	;
	194	457	850	0.08070999999999999	0.002690333333333333	0.15	4	30	0	0	;
	195	284	900	0.019530000000000002	0.00024412500000000004	0.15	4	80	0	0	;
	195	1181	900	0.41581	0.005197625	0.15	4	80	0	0	;
	195	831	850	0.09749	0.0032496666666666663	0.15	4	30	0	0	;
	196	68	850	0.3865	0.012883333333333333	0.15	4	30	0	0	;
	196	1238	850	0.25724	0.008574666666666668	0.15	4	30	0	0	;
	197	554	850	0.15599000000000002	0.0051996666666666675	0.15	4	30	0	0	;
	197	246	850	0.11968999999999999	0.0039896666666666665	0.15	4	30	0	0	;
	198	627	900	0.12422	0.0024844	0.15	4	50	0	0	;
	198	1018	450	0.08326	0.0016652	0.15	4	50	0	0	;
	199	945	850	0.04101	0.001367	0.15	4	30	0	0	;
	199	1090	850	0.07784	0.002594666666666667	0.15	4	30	0	0	;
	199	243	850	0.13665	0.004555	0.15	4	30	0	0	;
	200	985	1200	0.34101	0.006820199999999999	0.15	4	50	0	0	;
	200	245	1200	0.04942	0.0009884	0.15	4	50	0	0	;
	201	819	4000	0.17919	0.00149325	0.15	4	120	0	1	;
	201	1180	4000	0.13132	0.0010943333333333332	0.15	4	120	0	1	;
	202	274	900	0.019489999999999997	0.00038979999999999993	0.15	4	50	0	0	;
	202	1267	600	0.27905	0.009301666666666668	0.15	4	30	0	0	;
	202	1089	900	0.031239999999999997	0.0006247999999999999	0.15	4	50	0	0	;
	203	266	850	0.35345	0.011781666666666666	0.15	4	30	0	0	;
	203	1156	850	0.0515	0.0017166666666666665	0.15	4	30	0	0	;
	203	1214	850	0.07212	0.0024040000000000003	0.15	4	30	0	0	;
	204	883	900	0.05458	0.0010915999999999999	0.15	4	50	0	0	;
	204	36	10000	0.0	0.0	0.15	4	500	0	0	;
	204	781	900	0.17299	0.0034598000000000003	0.15	4	50	0	0	;
	204	637	900	0.20662	0.0041324	0.15	4	50	0	0	;
	205	392	600	0.10543000000000001	0.0021086000000000004	0.15	4	50	0	0	;
	205	193	900	0.1507	0.00188375	0.15	4	80	0	0	;
	205	476	900	0.50551	0.006318875	0.15	4	80	0	0	;
	206	1064	1200	0.08256000000000001	0.0016512000000000002	0.15	4	50	0	0	;
	206	362	1200	0.17815999999999999	0.0035632	0.15	4	50	0	0	;
	206	1284	850	0.07032	0.0023439999999999997	0.15	4	30	0	0	;
	208	680	600	0.27534	0.009177999999999999	0.15	4	30	0	0	;
	208	962	600	0.062229999999999994	0.002074333333333333	0.15	4	30	0	0	;
	209	810	900	0.13447	0.001680875	0.15	4	80	0	0	;
	209	485	900	0.09276000000000001	0.0011595000000000002	0.15	4	80	0	0	;
	209	1047	900	0.26214	0.0032767499999999997	0.15	4	80	0	0	;
	210	1074	850	0.06447	0.002149	0.15	4	30	0	0	;
	210	685	850	0.08436	0.0028120000000000003	0.15	4	30	0	0	;
	210	325	850	0.16627	0.005542333333333333	0.15	4	30	0	0	;
	211	1026	1200	0.01467	0.00029340000000000003	0.15	4	50	0	0	;
	211	1091	1200	0.01746	0.0003492	0.15	4	50	0	0	;
	211	636	900	0.32706999999999997	0.006541399999999999	0.15	4	50	0	0	;
	212	972	850	0.16409	0.005469666666666667	0.15	4	30	0	0	;
	212	766	850	0.02417	0.0008056666666666667	0.15	4	30	0	0	;
	212	1215	850	0.0718	0.0023933333333333333	0.15	4	30	0	0	;
	213	240	850	0.02887	0.0009623333333333334	0.15	4	30	0	0	;
	213	941	850	0.04001	0.0013336666666666666	0.15	4	30	0	0	;
	213	1045	850	0.07535	0.002511666666666667	0.15	4	30	0	0	;
	214	795	850	0.05273	0.0017576666666666667	0.15	4	30	0	0	;
	214	620	850	0.20814	0.006938	0.15	4	30	0	0	;
	214	1061	850	0.01214	0.00040466666666666667	0.15	4	30	0	0	;
	215	1040	900	0.11626	0.0023252	0.15	4	50	0	0	;
	215	970	600	0.15940000000000001	0.005313333333333334	0.15	4	30	0	0	;
	216	1276	600	0.54767	0.018255666666666667	0.15	4	30	0	0	;
	216	1254	850	0.03053	0.0010176666666666667	0.15	4	30	0	0	;
	217	736	850	0.48818	0.016272666666666668	0.15	4	30	0	0	;
	217	319	600	0.38292000000000004	0.007658400000000001	0.15	4	50	0	0	;
	218	290	1200	0.03939	0.0007878000000000001	0.15	4	50	0	0	;
	218	332	1200	0.0213	0.000426	0.15	4	50	0	0	;
	218	269	850	0.10429000000000001	0.0034763333333333334	0.15	4	30	0	0	;
	219	1081	1200	0.013009999999999999	0.0002602	0.15	4	50	0	0	;
	219	1167	1200	0.03737	0.0007474000000000001	0.15	4	50	0	0	;
	219	1097	850	0.11153	0.003717666666666667	0.15	4	30	0	0	;
	220	931	900	0.34414999999999996	0.006882999999999999	0.15	4	50	0	0	;
	220	174	900	0.41258	0.0082516	0.15	4	50	0	0	;
	220	719	850	0.16633	0.005544333333333333	0.15	4	30	0	0	;
	221	649	1200	0.15802000000000002	0.0031604000000000003	0.15	4	50	0	0	;
	221	260	1200	0.19977	0.0019977	0.15	4	100	0	0	;
	222	552	1200	0.012320000000000001	0.0002464	0.15	4	50	0	0	;
	222	623	900	0.11433	0.0022866	0.15	4	50	0	0	;
	222	177	1200	0.00877	0.0001754	0.15	4	50	0	0	;
	223	697	850	0.10486	0.0034953333333333334	0.15	4	30	0	0	;
	223	139	850	0.07118000000000001	0.002372666666666667	0.15	4	30	0	0	;
	223	638	850	0.052840000000000005	0.0017613333333333335	0.15	4	30	0	0	;