<NUMBER OF ZONES> 36
<NUMBER OF NODES> 1299
<FIRST THRU NODE> 1
<NUMBER OF LINKS> 3312
<END OF METADATA> 

~	 Init node 	 Term node 	 Capacity 	 Length 	 Free Flow Time 	 B 	 Power 	 Speed limit 	 Toll 	 Link Type 	
	8	8	1000	3.75	0.08333333333333333	0.15	4	45	0	8	;
	8	1196	10000	0.0	0.0	0.15	4	500	0	9	;
	9	9	1000	3.75	0.08333333333333333	0.15	4	45	0	8	;
	9	499	10000	0.0	0.0	0.15	4	500	0	9	;
	10	10	1000	3.75	0.08333333333333333	0.15	4	45	0	8	;
	10	862	10000	0.0	0.0	0.15	4	500	0	9	;
	11	11	1000	3.75	0.08333333333333333	0.15	4	45	0	8	;
	11	671	10000	0.0	0.0	0.15	4	500	0	9	;
	12	12	1000	3.75	0.08333333333333333	0.15	4	45	0	8	;
	12	989	10000	0.0	0.0	0.15	4	500	0	9	;
	13	13	1000	3.75	0.08333333333333333	0.15	4	45	0	8	;
	13	333	10000	0.0	0.0	0.15	4	500	0	9	;
	14	14	1000	3.75	0.08333333333333333	0.15	4	45	0	8	;
	14	1066	10000	0.0	0.0	0.15	4	500	0	9	;
	15	15	1000	3.75	0.08333333333333333	0.15	4	45	0	8	;
	15	912	10000	0.0	0.0	0.15	4	500	0	9	;
	16	16	1000	3.75	0.08333333333333333	0.15	4	45	0	8	;
	16	1228	10000	0.0	0.0	0.15	4	500	0	9	;
	17	17	1000	3.75	0.08333333333333333	0.15	4	45	0	8	;
	17	901	10000	0.0	0.0	0.15	4	500	0	9	;
	18	18	1000	3.75	0.08333333333333333	0.15	4	45	0	8	;
	18	39	10000	0.0	0.0	0.15	4	500	0	9	;
	19	19	1000	3.75	0.08333333333333333	0.15	4	45	0	8	;
	19	1064	10000	0.0	0.0	0.15	4	500	0	9	;
	20	20	1000	3.75	0.08333333333333333	0.15	4	45	0	8	;
	20	611	10000	0.0	0.0	0.15	4	500	0	9	;
	21	21	1000	3.75	0.08333333333333333	0.15	4	45	0	8	;
	21	391	10000	0.0	0.0	0.15	4	500	0	9	;
	22	22	1000	3.75	0.08333333333333333	0.15	4	45	0	8	;
	22	600	10000	0.0	0.0	0.15	4	500	0	9	;
	23	23	1000	3.75	0.08333333333333333	0.15	4	45	0	8	;
	23	821	10000	0.0	0.0	0.15	4	500	0	9	;
	24	24	1000	3.75	0.08333333333333333	0.15	4	45	0	8	;
	24	844	10000	0.0	0.0	0.15	4	500	0	9	;
	25	25	1000	3.75	0.08333333333333333	0.15	4	45	0	8	;
	25	1087	10000	0.0	0.0	0.15	4	500	0	9	;
	26	26	1000	3.75	0.08333333333333333	0.15	4	45	0	8	;
	26	931	10000	0.0	0.0	0.15	4	500	0	9	;
	27	27	1000	3.75	0.08333333333333333	0.15	4	45	0	8	;
	27	954	10000	0.0	0.0	0.15	4	500	0	9	;
	28	28	1000	3.75	0.08333333333333333	0.15	4	45	0	8	;
	28	319	10000	0.0	0.0	0.15	4	500	0	9	;
	29	29	1000	3.75	0.08333333333333333	0.15	4	45	0	8	;
	29	1002	10000	0.0	0.0	0.15	4	500	0	9	;
	30	30	1000	3.75	0.08333333333333333	0.15	4	45	0	8	;
	30	423	10000	0.0	0.0	0.15	4	500	0	9	;
	31	31	1000	3.75	0.08333333333333333	0.15	4	45	0	8	;
	31	1094	10000	0.0	0.0	0.15	4	500	0	9	;
	32	32	1000	3.75	0.08333333333333333	0.15	4	45	0	8	;
	32	893	10000	0.0	0.0	0.15	4	500	0	9	;
	33	33	1000	3.75	0.08333333333333333	0.15	4	45	0	8	;
	33	174	10000	0.0	0.0	0.15	4	500	0	9	;
	34	34	1000	3.75	0.08333333333333333	0.15	4	45	0	8	;
	34	1185	10000	0.0	0.0	0.15	4	500	0	9	;
	35	35	1000	3.75	0.08333333333333333	0.15	4	45	0	8	;
	35	207	10000	0.0	0.0	0.15	4	500	0	9	;
	36	36	1000	3.75	0.08333333333333333	0.15	4	45	0	8	;
	36	848	10000	0.0	0.0	0.15	4	500	0	9	;
	7	7	1000	3.75	0.08333333333333333	0.15	4	45	0	8	;
	7	634	10000	0.0	0.0	0.15	4	500	0	9	;
	6	6	1000	3.75	0.08333333333333333	0.15	4	45	0	8	;
	6	76	10000	0.0	0.0	0.15	4	500	0	9	;
	5	5	1000	3.75	0.08333333333333333	0.15	4	45	0	8	;
	5	256	10000	0.0	0.0	0.15	4	500	0	9	;
	4	4	1000	3.75	0.08333333333333333	0.15	4	45	0	8	;
	4	951	10000	0.0	0.0	0.15	4	500	0	9	;
	3	3	1000	3.75	0.08333333333333333	0.15	4	45	0	8	;
	3	491	10000	0.0	0.0	0.15	4	500	0	9	;
	2	2	1000	3.75	0.08333333333333333	0.15	4	45	0	8	;
	2	1291	10000	0.0	0.0	0.15	4	500	0	9	;
	1	1	1000	3.75	0.08333333333333333	0.15	4	45	0	8	;
	1	318	10000	0.0	0.0	0.15	4	500	0	9	;
	1	1123	10000	0.0	0.0	0.15	4	500	0	9	;
	37	228	850	0.10851999999999999	0.003617333333333333	0.15	4	30	0	0	;
	37	967	850	0.24536000000000002	0.008178666666666667	0.15	4	30	0	0	;
	37	529	850	0.23397	0.007799	0.15	4	30	0	0	;
	38	862	850	0.07845	0.002615	0.15	4	30	0	0	;
	38	864	850	0.19449	0.006483	0.15	4	30	0	0	;
	38	320	850	0.2305	0.007683333333333334	0.15	4	30	0	0	;
	39	18	10000	0.0	0.0	0.15	4	500	0	0	;
	39	394	600	2.66638	0.0533276	0.15	4	50	0	0	;
	40	117	900	0.2508	0.003135	0.15	4	80	0	0	;
	40	144	900	0.03083	0.000385375	0.15	4	80	0	0	;
	666	288	850	0.08454	0.002818	0.15	4	30	0	0	;
	666	314	850	0.05306	0.0017686666666666669	0.15	4	30	0	0	;
	666	430	850	0.02934	0.0009780000000000001	0.15	4	30	0	0	;
	666	662	850	0.02258	0.0007526666666666667	0.15	4	30	0	0	;
	41	425	1200	0.49895999999999996	0.004157999999999999	0.15	4	120	0	1	;
	667	395	850	0.09986	0.003328666666666667	0.15	4	30	0	0	;
	667	446	850	0.07045	0.0023483333333333333	0.15	4	30	0	0	;
	667	482	850	0.07277	0.0024256666666666667	0.15	4	30	0	0	;
	42	240	900	1.67811	0.020976375	0.15	4	80	0	0	;
	42	917	900	2.53972	0.0317465	0.15	4	80	0	0	;
	43	59	850	0.056060000000000006	0.001868666666666667	0.15	4	30	0	0	;
	43	865	600	0.15835	0.005278333333333333	0.15	4	30	0	0	;
	43	896	850	0.04185	0.001395	0.15	4	30	0	0	;
	44	868	600	0.00842	0.0001684	0.15	4	50	0	0	;
	44	490	600	5.0490699999999995	0.10098139999999999	0.15	4	50	0	0	;
	45	188	900	0.20943	0.0041886	0.15	4	50	0	0	;
	45	853	850	0.27848	0.009282666666666666	0.15	4	30	0	0	;
	45	994	900	0.05268	0.0010536	0.15	4	50	0	0	;
	46	980	1200	0.053219999999999996	0.0010643999999999999	0.15	4	50	0	0	;
	46	525	1200	0.023170000000000003	0.00046340000000000004	0.15	4	50	0	0	;
	46	1269	600	0.06944	0.0023146666666666667	0.15	4	30	0	0	;
	47	668	900	0.13374	0.0026747999999999997	0.15	4	50	0	0	;
	47	348	900	0.0233	0.00046600000000000005	0.15	4	50	0	0	;
	48	936	900	0.14186	0.0028372000000000002	0.15	4	50	0	0	;
	48	412	900	0.17351	0.0034702	0.15	4	50	0	0	;
	48	598	900	0.03344	0.0006688	0.15	4	50	0	0	;
	48	1235	900	0.12422	0.0024844	0.15	4	50	0	0	;
	49	991	900	0.02471	0.0004942	0.15	4	50	0	0	;
	49	598	900	0.06695999999999999	0.0013391999999999998	0.15	4	50	0	0	;
	50	60	850	0.07479000000000001	0.0024930000000000004	0.15	4	30	0	0	;
	50	157	900	0.01056	0.0002112	0.15	4	50	0	0	;
	50	664	900	0.0376	0.0007520000000000001	0.15	4	50	0	0	;
	668	47	900	0.13374	0.0026747999999999997	0.15	4	50	0	0	;
	668	793	900	0.12059	0.0024118	0.15	4	50	0	0	;
	668	423	850	0.16641	0.005547	0.15	4	30	0	0	;
	668	492	900	0.05113	0.0010226	0.15	4	50	0	0	;
	51	1167	900	0.43006	0.00537575	0.15	4	80	0	0	;
	51	1255	900	2.00816	0.025102000000000003	0.15	4	80	0	0	;
	669	255	1200	0.41527	0.0083054	0.15	4	50	0	0	;
	669	1022	1200	0.22953	0.0045906	0.15	4	50	0	0	;
	670	940	4000	0.02431	0.00020258333333333332	0.15	4	120	0	1	;
	671	11	10000	0.0	0.0	0.15	4	500	0	0	;
	671	721	900	0.17961000000000002	0.0035922000000000003	0.15	4	50	0	0	;
	671	1126	850	0.08006	0.002668666666666667	0.15	4	30	0	0	;
	671	663	900	0.05558	0.0011116	0.15	4	50	0	0	;
	52	126	900	0.30656	0.0061312	0.15	4	50	0	0	;
	52	516	900	0.03939	0.0007878000000000001	0.15	4	50	0	0	;
	672	807	600	0.9136	0.030453333333333332	0.15	4	30	0	0	;
	672	1125	600	0.19594999999999999	0.0065316666666666665	0.15	4	30	0	0	;
	53	678	1200	0.08120000000000001	0.0016240000000000002	0.15	4	50	0	0	;
	53	599	1200	0.50629	0.0101258	0.15	4	50	0	0	;
	54	62	600	0.48185	0.016061666666666665	0.15	4	30	0	0	;
	54	395	900	2.19489	0.0438978	0.15	4	50	0	0	;
	673	728	900	2.14623	0.026827875	0.15	4	80	0	0	;
	673	546	900	0.48694	0.00608675	0.15	4	80	0	0	;
	55	923	850	0.0246	0.00082	0.15	4	30	0	0	;
	55	376	850	0.037509999999999995	0.0012503333333333331	0.15	4	30	0	0	;
	55	539	850	0.0193	0.0006433333333333333	0.15	4	30	0	0	;
	56	840	900	0.48235	0.006029375	0.15	4	80	0	0	;
	56	393	900	0.39536	0.004942	0.15	4	80	0	0	;
	56	582	600	1.21986	0.024397199999999997	0.15	4	50	0	0	;
	57	698	850	0.15335	0.005111666666666666	0.15	4	30	0	0	;
	57	619	850	0.09629	0.0032096666666666667	0.15	4	30	0	0	;
	58	1149	850	0.05971	0.001990333333333333	0.15	4	30	0	0	;
	58	629	850	0.20815999999999998	0.006938666666666666	0.15	4	30	0	0	;
	59	43	850	0.056060000000000006	0.001868666666666667	0.15	4	30	0	0	;
	59	865	850	0.05318	0.0017726666666666665	0.15	4	30	0	0	;
	59	896	850	0.19635	0.006545	0.15	4	30	0	0	;
	60	50	850	0.07479000000000001	0.0024930000000000004	0.15	4	30	0	0	;
	60	453	850	0.0269	0.0008966666666666667	0.15	4	30	0	0	;
	60	1238	850	0.01662	0.000554	0.15	4	30	0	0	;
	60	1293	850	0.01688	0.0005626666666666666	0.15	4	30	0	0	;
	61	121	1200	0.07495	0.0014990000000000001	0.15	4	50	0	0	;
	61	1130	1200	0.0046500000000000005	9.300000000000001e-05	0.15	4	50	0	0	;
	61	514	850	0.05614	0.0018713333333333334	0.15	4	30	0	0	;
	62	54	600	0.48185	0.016061666666666665	0.15	4	30	0	0	;
	62	1228	600	0.16097	0.005365666666666667	0.15	4	30	0	0	;
	674	86	600	3.12812	0.0625624	0.15	4	50	0	0	;
	674	286	600	0.02566	0.0005132	0.15	4	50	0	0	;
	675	272	850	0.0649	0.0021633333333333335	0.15	4	30	0	0	;
	675	366	900	0.00594	0.0001188	0.15	4	50	0	0	;
	675	475	900	0.08853	0.0017706	0.15	4	50	0	0	;
	676	429	1200	0.16788	0.0033576	0.15	4	50	0	0	;
	676	1095	1200	0.032189999999999996	0.0006437999999999999	0.15	4	50	0	0	;
	63	70	1200	0.49085	0.0049085	0.15	4	100	0	0	;
	63	711	600	0.10754000000000001	0.003584666666666667	0.15	4	30	0	0	;
	63	562	1200	0.43874	0.0043874000000000005	0.15	4	100	0	0	;
	677	721	900	0.07947	0.0015894	0.15	4	50	0	0	;
	677	160	900	0.06799	0.0013598	0.15	4	50	0	0	;
	677	341	850	0.2382	0.00794	0.15	4	30	0	0	;
	678	53	1200	0.08120000000000001	0.0016240000000000002	0.15	4	50	0	0	;
	678	890	600	0.34638	0.011546	0.15	4	30	0	0	;
	678	575	1200	0.09364	0.0018728	0.15	4	50	0	0	;
	64	894	900	0.9249400000000001	0.018498800000000003	0.15	4	50	0	0	;
	64	917	900	0.0461	0.00057625	0.15	4	80	0	0	;
	679	956	1200	0.0644	0.001288	0.15	4	50	0	0	;
	679	1006	1200	0.01777	0.0003554	0.15	4	50	0	0	;
	680	707	850	0.20940999999999999	0.006980333333333333	0.15	4	30	0	0	;
	680	828	850	0.054	0.0018	0.15	4	30	0	0	;
	680	1009	850	0.054619999999999995	0.0018206666666666664	0.15	4	30	0	0	;
	65	1132	434.0	0.6900499999999999	0.023001666666666663	0.15	4	30	0	0	;
	65	537	850	0.32572	0.010857333333333333	0.15	4	30	0	0	;
	65	1233	600	0.09401000000000001	0.0018802000000000003	0.15	4	50	0	0	;
	66	802	850	0.12464	0.004154666666666667	0.15	4	30	0	0	;
	66	826	850	0.24541	0.008180333333333333	0.15	4	30	0	0	;
	66	379	850	0.37563	0.012521000000000001	0.15	4	30	0	0	;
	681	726	1200	0.009269999999999999	9.269999999999999e-05	0.15	4	100	0	0	;
	681	346	1200	1.10801	0.011080099999999999	0.15	4	100	0	0	;
	681	1227	900	0.1114	0.0013925	0.15	4	80	0	0	;
	682	770	850	0.07364	0.0024546666666666666	0.15	4	30	0	0	;
	682	419	850	0.0531	0.00177	0.15	4	30	0	0	;
	682	572	850	0.09075	0.003025	0.15	4	30	0	0	;
	67	841	850	0.053009999999999995	0.001767	0.15	4	30	0	0	;
	67	493	850	0.09869	0.003289666666666667	0.15	4	30	0	0	;
	67	1281	850	0.03706	0.0012353333333333335	0.15	4	30	0	0	;
	683	94	600	0.01083	0.000361	0.15	4	30	0	0	;
	683	214	600	0.27534	0.009177999999999999	0.15	4	30	0	0	;
	68	695	1200	0.01534	0.0003068	0.15	4	50	0	0	;
	68	85	1200	0.0438	0.0008759999999999999	0.15	4	50	0	0	;
	68	1292	1200	0.01758	0.0003516	0.15	4	50	0	0	;
	69	851	850	0.41469	0.013823	0.15	4	30	0	0	;
	69	351	850	0.11262	0.003754	0.15	4	30	0	0	;
	70	63	1200	0.49085	0.0049085	0.15	4	100	0	0	;
	70	995	1200	0.99386	0.009938599999999999	0.15	4	100	0	0	;
	70	1195	600	0.17759	0.005919666666666667	0.15	4	30	0	0	;
	684	937	900	1.1933099999999999	0.014916374999999999	0.15	4	80	0	0	;
	684	483	900	0.48357	0.006044625	0.15	4	80	0	0	;
	71	147	1200	0.15258000000000002	0.0015258000000000001	0.15	4	100	0	0	;
	71	808	1200	0.18636000000000003	0.0037272000000000004	0.15	4	50	0	0	;
	71	640	900	0.08726	0.0017452000000000001	0.15	4	50	0	0	;
	685	843	600	0.1098	0.0036599999999999996	0.15	4	30	0	0	;
	685	329	850	0.04266	0.0014219999999999999	0.15	4	30	0	0	;
	685	548	850	0.05238	0.0017460000000000002	0.15	4	30	0	0	;
	686	77	850	0.1635	0.00545	0.15	4	30	0	0	;
	686	422	850	0.11761	0.003920333333333334	0.15	4	30	0	0	;
	686	1139	850	0.11668	0.0038893333333333336	0.15	4	30	0	0	;
	687	158	1200	0.01034	0.0002068	0.15	4	50	0	0	;
	687	510	1200	0.016739999999999998	0.00033479999999999995	0.15	4	50	0	0	;
	687	1147	1200	0.04743	0.0009486	0.15	4	50	0	0	;
	72	199	850	0.3865	0.012883333333333333	0.15	4	30	0	0	;
	72	1090	600	0.19169999999999998	0.006389999999999999	0.15	4	30	0	0	;
	72	1196	600	0.02453	0.0008176666666666666	0.15	4	30	0	0	;
	73	120	850	0.11462	0.0038206666666666667	0.15	4	30	0	0	;
	73	1058	900	0.11629	0.0023258000000000003	0.15	4	50	0	0	;
	73	1070	900	0.10571	0.0021142	0.15	4	50	0	0	;
	688	213	850	0.08436	0.0028120000000000003	0.15	4	30	0	0	;
	688	301	600	0.21043	0.007014333333333333	0.15	4	30	0	0	;
	689	910	900	0.35525999999999996	0.007105199999999999	0.15	4	50	0	0	;
	689	308	900	0.060880000000000004	0.0007610000000000001	0.15	4	80	0	0	;
	689	618	600	0.28902	0.0057804	0.15	4	50	0	0	;
	74	89	600	0.18293	0.006097666666666667	0.15	4	30	0	0	;
	74	711	600	0.13747	0.004582333333333333	0.15	4	30	0	0	;
	74	562	600	0.26903	0.008967666666666667	0.15	4	30	0	0	;
	75	455	4000	0.31264	0.002605333333333333	0.15	4	120	0	1	;
	690	363	600	0.2562	0.005124	0.15	4	50	0	0	;
	690	485	850	0.11978	0.003992666666666667	0.15	4	30	0	0	;
	691	175	1200	0.2465	0.00493	0.15	4	50	0	0	;
	691	444	1200	0.17004	0.0034008	0.15	4	50	0	0	;
	76	6	10000	0.0	0.0	0.15	4	500	0	0	;
	76	1175	1200	0.80112	0.008011200000000001	0.15	4	100	0	0	;
	692	89	600	1.11592	0.03719733333333333	0.15	4	30	0	0	;
	692	711	600	0.52826	0.017608666666666665	0.15	4	30	0	0	;
	692	1195	600	0.18650999999999998	0.0062169999999999994	0.15	4	30	0	0	;
	77	686	850	0.1635	0.00545	0.15	4	30	0	0	;
	77	311	850.0	0.2021	0.006736666666666667	0.15	4	30	0	0	;
	77	1139	850	0.09381	0.003127	0.15	4	30	0	0	;
	78	167	1200	0.07117	0.0014234	0.15	4	50	0	0	;
	78	517	1200	0.0882	0.001764	0.15	4	50	0	0	;
	78	1141	850	0.13647	0.004549	0.15	4	30	0	0	;
	693	996	900	0.604	0.01208	0.15	4	50	0	0	;
	693	1061	1200	2.13331	0.021333099999999997	0.15	4	100	0	0	;
	693	648	1200	0.04456	0.00044560000000000004	0.15	4	100	0	0	;
	79	1096	4000	0.40648	0.0033873333333333333	0.15	4	120	0	1	;
	694	1059	450	0.08594	0.0017188000000000001	0.15	4	50	0	0	;
	694	633	900	0.01064	0.000133	0.15	4	80	0	0	;
	695	68	1200	0.01534	0.0003068	0.15	4	50	0	0	;
	695	950	900	0.12419	0.0024838	0.15	4	50	0	0	;
	695	595	1200	0.01955	0.000391	0.15	4	50	0	0	;
	81	396	4000	0.05865	0.00048875	0.15	4	120	0	1	;
	80	736	600	0.55821	0.011164199999999999	0.15	4	50	0	0	;
	80	177	900	0.23645	0.002955625	0.15	4	80	0	0	;
	80	295	900	1.04756	0.0130945	0.15	4	80	0	0	;
	696	1274	1200	0.019760000000000003	0.00019760000000000003	0.15	4	100	0	0	;
	696	1282	1200	0.04337	0.00043369999999999997	0.15	4	100	0	0	;
	697	899	600	0.18882	0.006293999999999999	0.15	4	30	0	0	;
	697	982	600	0.17443	0.005814333333333334	0.15	4	30	0	0	;
	697	1233	600	0.06739	0.0022463333333333337	0.15	4	30	0	0	;
	698	57	850	0.15335	0.005111666666666666	0.15	4	30	0	0	;
	698	530	1200	0.23549	0.0023549	0.15	4	100	0	0	;
	698	1261	1200	0.46311	0.0046311	0.15	4	100	0	0	;
	699	1034	4000	0.48686	0.004057166666666666	0.15	4	120	0	0	;
	699	1172	4000	0.02214	0.0001845	0.15	4	120	0	0	;
	82	274	850	0.02041	0.0006803333333333334	0.15	4	30	0	0	;
	82	1143	850	0.06664	0.0022213333333333334	0.15	4	30	0	0	;
	82	1178	850	0.20689	0.006896333333333333	0.15	4	30	0	0	;
	700	226	850	0.10486	0.0034953333333333334	0.15	4	30	0	0	;
	700	302	850	0.07440000000000001	0.0024800000000000004	0.15	4	30	0	0	;
	700	998	850	0.12813	0.004271	0.15	4	30	0	0	;
	701	132	900	0.03171	0.0006342	0.15	4	50	0	0	;
	701	902	600	0.13884	0.004627999999999999	0.15	4	30	0	0	;
	701	972	900	0.09405	0.0018809999999999999	0.15	4	50	0	0	;
	83	291	850	0.08729	0.0029096666666666667	0.15	4	30	0	0	;
	83	1012	900	0.01081	0.0002162	0.15	4	50	0	0	;
	83	628	900	0.11031	0.0022062	0.15	4	50	0	0	;
	702	340	900	0.20284	0.0025355	0.15	4	80	0	0	;
	702	997	900	0.49971	0.006246375	0.15	4	80	0	0	;
	702	1001	850	0.42175	0.014058333333333334	0.15	4	30	0	0	;
	84	805	850	0.09681000000000001	0.0032270000000000003	0.15	4	30	0	0	;
	84	607	850	0.12504	0.004168000000000001	0.15	4	30	0	0	;
	84	612	850	0.18774000000000002	0.0062580000000000005	0.15	4	30	0	0	;
	85	68	1200	0.0438	0.0008759999999999999	0.15	4	50	0	0	;
	85	278	600	0.14234	0.004744666666666666	0.15	4	30	0	0	;
	85	1221	1200	0.41255000000000003	0.008251000000000001	0.15	4	50	0	0	;
	86	674	600	3.12812	0.0625624	0.15	4	50	0	0	;
	86	1165	900	0.77454	0.00968175	0.15	4	80	0	0	;
	87	95	850	0.23409	0.007803	0.15	4	30	0	0	;
	87	565	850	1.01429	0.03380966666666666	0.15	4	30	0	0	;
	703	147	1200.0	0.1278	0.001278	0.15	4	100	0	0	;
	703	1274	360	0.04671	0.0004671	0.15	4	100	0	0	;
	704	1036	900	0.13603	0.001700375	0.15	4	80	0	0	;
	704	535	850	0.24106	0.008035333333333334	0.15	4	30	0	0	;
	704	563	900	0.1752	0.00219	0.15	4	80	0	0	;
	88	277	900	0.01723	0.0003446	0.15	4	50	0	0	;
	88	309	900	0.02002	0.0004004	0.15	4	50	0	0	;
	88	991	900	0.09061	0.0018122	0.15	4	50	0	0	;
	89	74	600	0.18293	0.006097666666666667	0.15	4	30	0	0	;
	89	692	600	1.11592	0.03719733333333333	0.15	4	30	0	0	;
	89	1138	600	0.08195000000000001	0.002731666666666667	0.15	4	30	0	0	;
	90	779	900	0.0851	0.001702	0.15	4	50	0	0	;
	90	272	850	0.04814	0.0016046666666666668	0.15	4	30	0	0	;
	90	1109	900	0.06749	0.0013498	0.15	4	50	0	0	;
	91	634	850	0.08635	0.002878333333333333	0.15	4	30	0	0	;
	91	1285	850	0.18928	0.0063093333333333335	0.15	4	30	0	0	;
	91	661	850	0.06301	0.0021003333333333334	0.15	4	30	0	0	;
	92	372	900	0.07656	0.0015312000000000001	0.15	4	50	0	0	;
	92	412	900	0.03587	0.0007174	0.15	4	50	0	0	;
	705	889	900	0.25983	0.0051966	0.15	4	50	0	0	;
	705	333	900	0.45433999999999997	0.009086799999999999	0.15	4	50	0	0	;
	705	971	850	0.045380000000000004	0.0015126666666666667	0.15	4	30	0	0	;
	706	276	900	0.28352	0.0056704	0.15	4	50	0	0	;
	706	1018	900	0.06215	0.000776875	0.15	4	80	0	0	;
	706	1194	850	0.16801	0.005600333333333333	0.15	4	30	0	0	;
	93	627	4000	0.02038	0.00016983333333333333	0.15	4	120	0	1	;
	94	683	600	0.01083	0.000361	0.15	4	30	0	0	;
	94	654	850	0.11959	0.003986333333333333	0.15	4	30	0	0	;
	707	680	850	0.20940999999999999	0.006980333333333333	0.15	4	30	0	0	;
	707	1009	850	0.08865	0.002955	0.15	4	30	0	0	;
	707	569	850	0.22104	0.0073679999999999995	0.15	4	30	0	0	;
	95	87	850	0.23409	0.007803	0.15	4	30	0	0	;
	95	261	850	0.11344	0.003781333333333333	0.15	4	30	0	0	;
	708	742	850	0.38991000000000003	0.012997000000000002	0.15	4	30	0	0	;
	708	323	900	0.1409	0.00176125	0.15	4	80	0	0	;
	708	340	900	0.30643	0.0038303749999999996	0.15	4	80	0	0	;
	709	1039	850	0.1445	0.004816666666666666	0.15	4	30	0	0	;
	709	1177	850	0.027469999999999998	0.0009156666666666666	0.15	4	30	0	0	;
	709	614	850	0.05064	0.0016879999999999998	0.15	4	30	0	0	;
	96	738	850	0.12065000000000001	0.004021666666666667	0.15	4	30	0	0	;
	96	976	850	0.2709	0.00903	0.15	4	30	0	0	;
	96	991	850	0.10141	0.0033803333333333333	0.15	4	30	0	0	;
	96	609	850	0.20385	0.006795	0.15	4	30	0	0	;
	97	328	600	0.21330000000000002	0.007110000000000001	0.15	4	30	0	0	;
	97	1190	850	0.00937	0.00031233333333333335	0.15	4	30	0	0	;
	97	597	850	0.13357	0.004452333333333333	0.15	4	30	0	0	;
	98	108	4000	0.05324	0.0004436666666666667	0.15	4	120	0	1	;
	710	920	900	0.9863999999999999	0.012329999999999999	0.15	4	80	0	0	;
	710	1255	900	0.31104000000000004	0.0038880000000000004	0.15	4	80	0	0	;
	711	63	600	0.10754000000000001	0.003584666666666667	0.15	4	30	0	0	;
	711	74	600	0.13747	0.004582333333333333	0.15	4	30	0	0	;
	711	692	600	0.52826	0.017608666666666665	0.15	4	30	0	0	;
	712	310	4000	0.02441	0.0002034166666666667	0.15	4	120	0	1	;
	713	345	850	0.1095	0.00365	0.15	4	30	0	0	;
	713	456	850	0.08854000000000001	0.0029513333333333336	0.15	4	30	0	0	;
	714	743	1200	0.23934	0.0047868	0.15	4	50	0	0	;
	714	247	850	0.13961	0.004653666666666667	0.15	4	30	0	0	;
	714	1129	1200	0.18878999999999999	0.0037757999999999997	0.15	4	50	0	0	;
	99	855	900	0.05034	0.00062925	0.15	4	80	0	0	;
	99	1194	900	0.17693	0.0035386000000000003	0.15	4	50	0	0	;
	715	798	900	0.15803	0.001975375	0.15	4	80	0	0	;
	715	1019	900	0.28070999999999996	0.0035088749999999994	0.15	4	80	0	0	;
	715	416	900	0.11198000000000001	0.0013997500000000002	0.15	4	80	0	0	;
	715	1084	900	0.09537999999999999	0.00119225	0.15	4	80	0	0	;
	100	1030	900	0.25397	0.0031746249999999995	0.15	4	80	0	0	;
	100	1067	900	0.38523	0.004815375	0.15	4	80	0	0	;
	101	726	1200	0.01779	0.00017790000000000001	0.15	4	100	0	0	;
	101	298	1200	0.42686	0.0042686	0.15	4	100	0	0	;
	102	1085	1200	0.14358	0.0028716	0.15	4	50	0	0	;
	102	476	900	0.02123	0.00042459999999999997	0.15	4	50	0	0	;
	103	262	850	0.12589	0.004196333333333333	0.15	4	30	0	0	;
	103	1019	900	0.0255	0.00031874999999999997	0.15	4	80	0	0	;
	103	452	900	0.09364	0.0011705	0.15	4	80	0	0	;
	716	867	600	0.09255	0.0030849999999999996	0.15	4	30	0	0	;
	716	487	900	0.054490000000000004	0.0010898000000000001	0.15	4	50	0	0	;
	716	635	900	0.01231	0.0002462	0.15	4	50	0	0	;
	717	235	900	0.12395	0.0024790000000000003	0.15	4	50	0	0	;
	717	358	850	0.07376	0.0024586666666666667	0.15	4	30	0	0	;
	717	1039	900	0.047909999999999994	0.0009581999999999999	0.15	4	50	0	0	;
	104	863	4000	0.0172	0.00014333333333333334	0.15	4	120	0	0	;
	104	467	4000	0.052520000000000004	0.0004376666666666667	0.15	4	120	0	0	;
	718	764	4000	0.023649999999999997	0.00019708333333333332	0.15	4	120	0	0	;
	718	437	4000	0.11835999999999999	0.0009863333333333332	0.15	4	120	0	0	;
	105	119	850	0.17878	0.005959333333333333	0.15	4	30	0	0	;
	105	158	900	0.1525	0.0030499999999999998	0.15	4	50	0	0	;
	105	647	900	0.03673	0.0007346	0.15	4	50	0	0	;
	719	789	850	0.11123000000000001	0.003707666666666667	0.15	4	30	0	0	;
	719	333	850	0.24115999999999999	0.008038666666666666	0.15	4	30	0	0	;
	106	1005	1200	0.04952	0.0009904	0.15	4	50	0	0	;
	106	488	1200	0.02775	0.000555	0.15	4	50	0	0	;
	106	1189	600	0.14697	0.004899	0.15	4	30	0	0	;
	107	1206	1200	0.030010000000000002	0.00030010000000000003	0.15	4	100	0	0	;
	107	602	1200	0.02588	0.0005176	0.15	4	50	0	0	;
	720	165	850	0.060969999999999996	0.002032333333333333	0.15	4	30	0	0	;
	720	878	850	0.05346	0.001782	0.15	4	30	0	0	;
	720	1127	850	0.037689999999999994	0.001256333333333333	0.15	4	30	0	0	;
	721	671	900	0.17961000000000002	0.0035922000000000003	0.15	4	50	0	0	;
	721	677	900	0.07947	0.0015894	0.15	4	50	0	0	;
	721	1000	900	0.07659999999999999	0.0015319999999999997	0.15	4	50	0	0	;
	721	1072	900	0.20261	0.004052200000000001	0.15	4	50	0	0	;
	722	223	850	0.16633	0.005544333333333333	0.15	4	30	0	0	;
	722	255	1200	0.14774	0.0029548	0.15	4	50	0	0	;
	722	1005	1200	0.28325	0.005665	0.15	4	50	0	0	;
	108	204	4000	0.23696	0.0019746666666666667	0.15	4	120	0	1	;
	723	132	1200	0.01277	0.00025540000000000003	0.15	4	50	0	0	;
	723	399	1200	0.01734	0.0003468	0.15	4	50	0	0	;
	723	1083	1200	0.10640000000000001	0.002128	0.15	4	50	0	0	;
	724	109	600	0.43172000000000005	0.014390666666666668	0.15	4	30	0	0	;
	724	1128	600	0.40908	0.013636	0.15	4	30	0	0	;
	109	724	600	0.43172000000000005	0.014390666666666668	0.15	4	30	0	0	;
	109	1128	900	0.5562699999999999	0.011125399999999999	0.15	4	50	0	0	;
	109	1271	900	0.18588	0.0037175999999999997	0.15	4	50	0	0	;
	110	397	850	0.41731999999999997	0.013910666666666665	0.15	4	30	0	0	;
	110	540	900	0.07514	0.0015027999999999999	0.15	4	50	0	0	;
	110	547	900	0.02884	0.0005768	0.15	4	50	0	0	;
	111	1150	850	0.30252999999999997	0.010084333333333332	0.15	4	30	0	0	;
	111	649	850	0.15474000000000002	0.005158	0.15	4	30	0	0	;
	112	746	900	0.84654	0.01058175	0.15	4	80	0	0	;
	112	1030	900	0.50496	0.006312	0.15	4	80	0	0	;
	725	457	850	0.033600000000000005	0.0011200000000000001	0.15	4	30	0	0	;
	725	1144	850	0.07402	0.0024673333333333335	0.15	4	30	0	0	;
	725	643	850	0.05287	0.0017623333333333334	0.15	4	30	0	0	;
	726	681	1200	0.009269999999999999	9.269999999999999e-05	0.15	4	100	0	0	;
	726	101	1200	0.01779	0.00017790000000000001	0.15	4	100	0	0	;
	113	385	900	0.00721	0.0001442	0.15	4	50	0	0	;
	113	1259	850	0.12296	0.004098666666666666	0.15	4	30	0	0	;
	113	649	900	0.00417	8.340000000000001e-05	0.15	4	50	0	0	;
	114	795	900	0.046009999999999995	0.0009201999999999999	0.15	4	50	0	0	;
	114	922	900	0.17887999999999998	0.0035776	0.15	4	50	0	0	;
	114	1180	850	0.42724	0.014241333333333333	0.15	4	30	0	0	;
	115	751	900	0.1699	0.0021237499999999998	0.15	4	80	0	0	;
	115	926	900	0.09043000000000001	0.001130375	0.15	4	80	0	0	;
	727	811	900	0.22549	0.0045098	0.15	4	50	0	0	;
	727	820	850	0.16531	0.005510333333333334	0.15	4	30	0	0	;
	727	1026	900	0.10307	0.0020613999999999997	0.15	4	50	0	0	;
	116	167	1200	0.0242	0.000484	0.15	4	50	0	0	;
	116	415	1200	0.09818	0.0019636000000000002	0.15	4	50	0	0	;
	116	587	1200	0.01303	0.0002606	0.15	4	50	0	0	;
	728	673	900	2.14623	0.026827875	0.15	4	80	0	0	;
	728	965	900	0.90538	0.01131725	0.15	4	80	0	0	;
	729	883	850	0.12276999999999999	0.004092333333333333	0.15	4	30	0	0	;
	729	381	850	0.08452	0.002817333333333333	0.15	4	30	0	0	;
	729	1297	850	0.34114999999999995	0.011371666666666665	0.15	4	30	0	0	;
	117	40	900	0.2508	0.003135	0.15	4	80	0	0	;
	117	840	900	0.05407	0.000675875	0.15	4	80	0	0	;
	730	830	600	0.10136	0.0020272000000000003	0.15	4	50	0	0	;
	730	839	900	0.01428	0.0001785	0.15	4	80	0	0	;
	730	362	900	0.40242	0.00503025	0.15	4	80	0	0	;
	731	1004	900	0.0693	0.001386	0.15	4	50	0	0	;
	731	1047	900	0.21388	0.0042775999999999995	0.15	4	50	0	0	;
	732	820	850	0.1761	0.00587	0.15	4	30	0	0	;
	732	836	900	0.0591	0.0011819999999999999	0.15	4	50	0	0	;
	732	1000	900	0.07107	0.0014214	0.15	4	50	0	0	;
	118	989	900	0.39061	0.0078122	0.15	4	50	0	0	;
	118	436	900	0.15134999999999998	0.001891875	0.15	4	80	0	0	;
	118	536	900	0.37189999999999995	0.007437999999999999	0.15	4	50	0	0	;
	733	811	850	0.16383	0.005461	0.15	4	30	0	0	;
	733	820	850	0.19719	0.006573	0.15	4	30	0	0	;
	733	299	850	0.09829	0.0032763333333333334	0.15	4	30	0	0	;
	119	105	850	0.17878	0.005959333333333333	0.15	4	30	0	0	;
	119	194	850	0.12745	0.004248333333333334	0.15	4	30	0	0	;
	119	587	900	0.05199	0.0010398	0.15	4	50	0	0	;
	120	73	850	0.11462	0.0038206666666666667	0.15	4	30	0	0	;
	120	383	900	0.11026999999999999	0.0022053999999999997	0.15	4	50	0	0	;
	120	571	900	0.06876	0.0013752	0.15	4	50	0	0	;
	121	61	1200	0.07495	0.0014990000000000001	0.15	4	50	0	0	;
	121	856	1200	0.10696	0.0021392	0.15	4	50	0	0	;
	121	492	900	0.15111000000000002	0.0030222000000000005	0.15	4	50	0	0	;
	122	810	850	0.44549	0.014849666666666667	0.15	4	30	0	0	;
	122	285	600	0.09298000000000001	0.0030993333333333337	0.15	4	30	0	0	;
	734	403	850	0.11868000000000001	0.003956	0.15	4	30	0	0	;
	734	468	1200	0.054560000000000004	0.0010912	0.15	4	50	0	0	;
	734	1223	1200	0.0634	0.001268	0.15	4	50	0	0	;
	735	1159	850	0.18078999999999998	0.006026333333333332	0.15	4	30	0	0	;
	735	1245	850	0.55961	0.01865366666666667	0.15	4	30	0	0	;
	123	378	600	1.2400799999999998	0.024801599999999997	0.15	4	50	0	0	;
	123	489	600	0.76086	0.0152172	0.15	4	50	0	0	;
	124	307	850	0.3982	0.013273333333333333	0.15	4	30	0	0	;
	124	1011	600	0.18719999999999998	0.006239999999999999	0.15	4	30	0	0	;
	124	617	850	0.2521	0.008403333333333334	0.15	4	30	0	0	;
	736	80	600	0.55821	0.011164199999999999	0.15	4	50	0	0	;
	736	1067	600	2.46444	0.0492888	0.15	4	50	0	0	;
	736	1137	600	0.94971	0.018994200000000003	0.15	4	50	0	0	;
	737	349	900	0.16405	0.003281	0.15	4	50	0	0	;
	737	1145	850	0.05775	0.001925	0.15	4	30	0	0	;
	737	647	900	0.14911000000000002	0.0029822000000000004	0.15	4	50	0	0	;
	738	96	850	0.12065000000000001	0.004021666666666667	0.15	4	30	0	0	;
	738	1091	900	0.01391	0.0002782	0.15	4	50	0	0	;
	738	461	900	0.01884	0.0003768	0.15	4	50	0	0	;
	125	1118	900	0.01644	0.00032879999999999997	0.15	4	50	0	0	;
	125	1263	850	0.16515000000000002	0.005505	0.15	4	30	0	0	;
	125	1275	900	0.11081	0.0022162	0.15	4	50	0	0	;
	126	52	900	0.30656	0.0061312	0.15	4	50	0	0	;
	126	781	1200	0.08189	0.0016378	0.15	4	50	0	0	;
	739	220	850	0.48818	0.016272666666666668	0.15	4	30	0	0	;
	739	1290	850	0.2216	0.007386666666666666	0.15	4	30	0	0	;
	740	392	850	0.07381	0.0024603333333333335	0.15	4	30	0	0	;
	740	1289	900	0.17987999999999998	0.0035976	0.15	4	50	0	0	;
	741	966	180	0.11184999999999999	0.002237	0.15	4	50	0	0	;
	741	545	600	0.06498000000000001	0.0012996000000000001	0.15	4	50	0	0	;
	741	578	1	0.98388	0.0196776	0.15	4	50	0	0	;
	742	708	850	0.38991000000000003	0.012997000000000002	0.15	4	30	0	0	;
	742	563	900	0.11918000000000001	0.0014897500000000002	0.15	4	80	0	0	;
	742	620	900	0.43086	0.00538575	0.15	4	80	0	0	;
	743	714	1200	0.23934	0.0047868	0.15	4	50	0	0	;
	743	1212	850	0.07934999999999999	0.0026449999999999998	0.15	4	30	0	0	;
	743	1262	1200	0.016059999999999998	0.00032119999999999995	0.15	4	50	0	0	;
	127	353	900	0.14214	0.0028428	0.15	4	50	0	0	;
	127	523	900	0.21612	0.0043224000000000005	0.15	4	50	0	0	;
	127	1273	850	0.11769	0.003923	0.15	4	30	0	0	;
	744	400	850	0.0207	0.00069	0.15	4	30	0	0	;
	744	1035	850	0.058929999999999996	0.001964333333333333	0.15	4	30	0	0	;
	744	1222	850	0.04072	0.0013573333333333332	0.15	4	30	0	0	;
	745	870	180	0.41411000000000003	0.0082822	0.15	4	50	0	0	;
	746	112	900	0.84654	0.01058175	0.15	4	80	0	0	;
	746	918	900	0.15741999999999998	0.00196775	0.15	4	80	0	0	;
	128	983	1200	0.0324	0.0006479999999999999	0.15	4	50	0	0	;
	128	1021	850	0.18246	0.006082000000000001	0.15	4	30	0	0	;
	128	1262	1200	0.01267	0.00025340000000000003	0.15	4	50	0	0	;
	129	802	850	0.0757	0.0025233333333333336	0.15	4	30	0	0	;
	129	335	850	0.20662	0.006887333333333333	0.15	4	30	0	0	;
	129	1214	600	0.18553999999999998	0.0061846666666666664	0.15	4	30	0	0	;
	130	914	600	0.06726	0.0013452	0.15	4	50	0	0	;
	130	352	600	0.02471	0.0004942	0.15	4	50	0	0	;
	130	631	600	0.10556	0.0021112	0.15	4	50	0	0	;
	747	978	900	0.056780000000000004	0.0011356	0.15	4	50	0	0	;
	747	449	900	0.16536	0.0033072	0.15	4	50	0	0	;
	748	993	4000	2.99214	0.024934500000000002	0.15	4	120	0	0	;
	748	491	4000	0.23711000000000002	0.0019759166666666666	0.15	4	120	0	0	;
	131	155	1200	0.28179000000000004	0.005635800000000001	0.15	4	50	0	0	;
	131	1176	1200	0.44251	0.0044251	0.15	4	100	0	0	;
	749	139	850	0.05586	0.001862	0.15	4	30	0	0	;
	749	1193	850	0.28491000000000005	0.009497000000000002	0.15	4	30	0	0	;
	132	701	900	0.03171	0.0006342	0.15	4	50	0	0	;
	132	723	1200	0.01277	0.00025540000000000003	0.15	4	50	0	0	;
	132	271	1200	0.009949999999999999	0.00019899999999999999	0.15	4	50	0	0	;
	750	290	850	0.07715000000000001	0.002571666666666667	0.15	4	30	0	0	;
	750	923	850	0.053810000000000004	0.0017936666666666667	0.15	4	30	0	0	;
	750	1103	850	0.03534	0.001178	0.15	4	30	0	0	;
	751	115	900	0.1699	0.0021237499999999998	0.15	4	80	0	0	;